*Heading
** Job name: Job-1 Model name: Model-1
** Generated by: Abaqus/CAE 2023
*Preprint, echo=NO, model=NO, history=NO, contact=NO
**
** PARTS
**
*Part, name=Part-2
*End Part
**  
**
** ASSEMBLY
**
*Assembly, name=Assembly
**  
*Instance, name=Part-2-1, part=Part-2
*Node
      1,   1.44142103, -0.141421005,           0.
      2,   1.15857899,  0.141421005,           0.
      3,  -1.93703401, 0.0940399989,           0.
      4,  -2.07364607,  0.256848991,           0.
      5,  -1.93703401, 0.0940399989,        0.375
      6,   1.15857899,  0.141421005,        0.375
      7,   1.44142103, -0.141421005,        0.375
      8,  -2.07364607,  0.256848991,        0.375
      9,  -1.44142103,  0.141421005,           0.
     10,  -1.15857899, -0.141421005,           0.
     11,   1.93703401, -0.0940399989,           0.
     12,   2.07364607, -0.256848991,           0.
     13,   1.93703401, -0.0940399989,        0.375
     14,  -1.15857899, -0.141421005,        0.375
     15,  -1.44142103,  0.141421005,        0.375
     16,   2.07364607, -0.256848991,        0.375
     17,   1.29999077, 9.17781108e-06,           0.
     18,    1.2220186,  0.209844142,           0.
     19,   1.28212488,  0.277133524,           0.
     20,   1.33498895,  0.341574073,           0.
** ... 1396 like lines cut
*Element, type=C3D8R
  1,   37,  499,  497,   38,  766, 1191, 1189,  765
  2,  499,  113,  112,  497, 1191,  632,  633, 1189
  3,   36,  500,  499,   37,  767, 1192, 1191,  766
  4,  500,  114,  113,  499, 1192,  631,  632, 1191
  5,   35,  501,  500,   36,  768, 1193, 1192,  767
  6,  501,  115,  114,  500, 1193,  630,  631, 1192
  7,   34,  502,  501,   35,  769, 1194, 1193,  768
  8,  502,  116,  115,  501, 1194,  629,  630, 1193
  9,   33,  503,  502,   34,  770, 1195, 1194,  769
 10,  503,  117,  116,  502, 1195,  628,  629, 1194
 11,   32,  504,  503,   33,  771, 1196, 1195,  770
 12,  504,  118,  117,  503, 1196,  627,  628, 1195
 13,   31,  505,  504,   32,  772, 1197, 1196,  771
 14,  505,  119,  118,  504, 1197,  626,  627, 1196
 15,   30,  506,  505,   31,  773, 1198, 1197,  772
 16,  506,  120,  119,  505, 1198,  625,  626, 1197
 17,   29,  507,  506,   30,  774, 1199, 1198,  773
 18,  507,  121,  120,  506, 1199,  624,  625, 1198
 19,   28,  508,  507,   29,  775, 1200, 1199,  774
 20,  508,  122,  121,  507, 1200,  623,  624, 1199
** ... 676 like lines cut
*Nset, nset=Set-1, generate
    1,  1416,     1
*Elset, elset=Set-1, generate
   1,  696,    1
** Section: Section-1
*Solid Section, elset=Set-1, material=M300
,
*End Instance
**  
*Node
      1,           0.,           0.,           0.
*Nset, nset=Set-3, instance=Part-2-1
   1,   2,   6,   7,   9,  10,  14,  15,  17, 133, 134, 135, 136, 198, 257, 373
 374, 375, 376, 438, 611, 612, 957, 958
*Elset, elset=Set-3, instance=Part-2-1
  41,  42, 157, 158, 273, 274, 389, 390, 505, 506, 621, 622
*Nset, nset=Set-5
 1,
*Nset, nset=Set-6, instance=Part-2-1
   1,   2,   6,   7,   9,  10,  14,  15,  17, 133, 134, 135, 136, 198, 257, 373
 374, 375, 376, 438, 611, 612, 957, 958
*Elset, elset=Set-6, instance=Part-2-1
  41,  42, 157, 158, 273, 274, 389, 390, 505, 506, 621, 622
*Nset, nset=Set-8, instance=Part-2-1
   1,   2,   6,   7,   9,  10,  14,  15,  17, 133, 134, 135, 136, 198, 257, 373
 374, 375, 376, 438, 611, 612, 957, 958
*Elset, elset=Set-8, instance=Part-2-1
  41,  42, 157, 158, 273, 274, 389, 390, 505, 506, 621, 622
*Nset, nset=m_Set-1
 1,
*Nset, nset=m_Set-9
 1,
*Nset, nset=s_Set-1, instance=Part-2-1
   3,   4,   5,   8,  11,  12,  13,  16,  75, 137, 138, 139, 140, 256, 315, 377
 378, 379, 380, 496, 727, 728, 959, 960
*Elset, elset=s_Set-1, instance=Part-2-1
 115, 116, 231, 232, 347, 348, 463, 464, 579, 580, 695, 696
*Nset, nset=s_Set-7, instance=Part-2-1
   3,   4,   5,   8,  11,  12,  13,  16,  75, 137, 138, 139, 140, 256, 315, 377
 378, 379, 380, 496, 727, 728, 959, 960
*Elset, elset=s_Set-7, instance=Part-2-1
 115, 116, 231, 232, 347, 348, 463, 464, 579, 580, 695, 696
*Nset, nset=s_Set-9, instance=Part-2-1
   3,   4,   5,   8,  11,  12,  13,  16,  75, 137, 138, 139, 140, 256, 315, 377
 378, 379, 380, 496, 727, 728, 959, 960
*Elset, elset=s_Set-9, instance=Part-2-1
 115, 116, 231, 232, 347, 348, 463, 464, 579, 580, 695, 696
*Surface, type=NODE, name=s_Set-9_CNS_, internal
s_Set-9, 1.
** Constraint: Constraint-1
*MPC
TIE, s_Set-9, m_Set-9
*End Assembly
** 
** MATERIALS
** 
*Material, name=M300
*Elastic
 2.75e+07, 0.33
** 
** BOUNDARY CONDITIONS
** 
** Name: BC-1 Type: Displacement/Rotation
*Boundary
Set-8, 1, 1
Set-8, 2, 2
Set-8, 3, 3
Set-8, 4, 4
Set-8, 5, 5
Set-8, 6, 6
** ----------------------------------------------------------------
** 
** STEP: Step-1
** 
*Step, name=Step-1, nlgeom=NO
*Static
0.1, 1., 1e-05, 1.
** 
** LOADS
** 
** Name: Load-1   Type: Moment
*Cload
Set-5, 6, 4550.
** 
** OUTPUT REQUESTS
** 
*Restart, write, frequency=0
** 
** FIELD OUTPUT: F-Output-1
** 
*Output, field, variable=PRESELECT
** 
** HISTORY OUTPUT: H-Output-1
** 
*Output, history, variable=PRESELECT
*End Step
