1

   Abaqus 2023                                  Date 30-Jul-2024   Time 21:37:07
   For use by TEXAS A_M UNIVERSITY SYSTEM under license from Dassault Systemes or its subsidiary.



                         The Abaqus Software is a product of:

                           Dassault Systemes SIMULIA Corp.
                           1301 Atwood Avenue, Suite 101W
                              Johnston, RI 02919, USA
 


                   The Abaqus Software is available only under license
                   from Dassault Systemes or its subsidiary and may be
                   used or reproduced only in accordance with the terms
                   of such license.
 
                          On machine BCDC-HCLQCX3 
                          you are authorized to run
                          Abaqus/Standard until 30-Oct-2024

                          Your site id is: 200000000002185 


 
                    For assistance or any other information you may
                    obtain contact information for your local office
                    from the world wide web at:

                      http://www.3ds.com/products/simulia/locations/

 
                * * * * * * * * * * * * * * * * * * * * * * * * * * * * * * 
                *                                                         * 
                *                   *****************                     * 
                *                   *  N O T I C E  *                     * 
                *                   *****************                     * 
                *                                                         * 
                *                                                         * 
                *                       Abaqus 2023                       * 
                *                                                         * 
                *          BUILD ID: 2022_09_28-13.11.55 183150           * 
                *                                                         * 
                *                                                         * 
                *  Please make sure you are using                         * 
                *  release Abaqus 2023 manuals                            * 
                *  plus the notes accompanying this release.              * 
                *                                                         * 
                *                                                         * 
                *                                                         * 
                *                                                         * 
                *                                                         * 
                *   This program may not be used for commercial purposes  * 
                *           without payment of a commercial fee.          * 
                *                                                         * 
                * * * * * * * * * * * * * * * * * * * * * * * * * * * * * * 


 



     PROCESSING PART, INSTANCE, AND ASSEMBLY INFORMATION
   *******************************************************


     END PROCESSING PART, INSTANCE, AND ASSEMBLY INFORMATION
   ***********************************************************




     OPTIONS BEING PROCESSED
   ***************************


  *Heading
  *Node
  *Element, type=C3D8R
  *Nset, nset=ASSEMBLY_PART-2-1_SET-1
  *Elset, elset=ASSEMBLY_PART-2-1_SET-1
  *Node
  *Nset, nset=ASSEMBLY_M_SET-1
  *Nset, nset=ASSEMBLY_M_SET-9
  *Nset, nset=ASSEMBLY_SET-3
  *Nset, nset=ASSEMBLY_SET-5
  *Nset, nset=ASSEMBLY_SET-6
  *Nset, nset=ASSEMBLY_SET-8
  *Nset, nset=ASSEMBLY_S_SET-1
  *Nset, nset=ASSEMBLY_S_SET-7
  *Nset, nset=ASSEMBLY_S_SET-9
  *Elset, elset=ASSEMBLY_SET-3
  *Elset, elset=ASSEMBLY_SET-6
  *Elset, elset=ASSEMBLY_SET-8
  *Elset, elset=ASSEMBLY_S_SET-1
  *Elset, elset=ASSEMBLY_S_SET-7
  *Elset, elset=ASSEMBLY_S_SET-9
  *material, name=M300
  *elastic
  *solidsection, elset=ASSEMBLY_PART-2-1_SET-1, material=M300
  *solidsection, elset=ASSEMBLY_PART-2-1_SET-1, material=M300
  *surface, type=NODE, name=ASSEMBLY_S_SET-9_CNS_
  *surface, type=NODE, name=ASSEMBLY_S_SET-9_CNS_
  *boundary
  *boundary
  *mpc
  *surface, type=NODE, name=ASSEMBLY_S_SET-9_CNS_
  *output, field, variable=PRESELECT
  *output, history, variable=PRESELECT
  *output, field, variable=PRESELECT
  *output, history, variable=PRESELECT
  *output, field, variable=PRESELECT
  *output, history, variable=PRESELECT

 ***NOTE: MPCS (EXTERNAL or INTERNAL, including those generated from rigid body 
          definitions), KINEMATIC COUPLINGS, AND/OR EQUATIONS WILL ACTIVATE 
          ADDITIONAL DEGREES OF FREEDOM
  *Step, name=Step-1, nlgeom=NO
  *output, field, variable=PRESELECT
  *output, history, variable=PRESELECT
  *Step, name=Step-1, nlgeom=NO
  *Step, name=Step-1, nlgeom=NO
  *static
  *output, field, variable=PRESELECT
  *output, history, variable=PRESELECT
  *endstep
  *boundary
  *Step, name=Step-1, nlgeom=NO
  *static
  *cload
  *endstep

 ***NOTE: Boundary conditions are specified on inactive dof of 24 nodes. The 
          nodes have been identified in node set WarnNodeBCInactiveDof.

 ***WARNING: NODES 3 INSTANCE PART-2-1 AND 1 (ASSEMBLY) IN THE TIE MPC ARE NOT 
             COINCIDENT.  THE MPC WILL CONSTRAIN ROTATIONAL RIGID-BODY MOTION 
             BETWEEN THE NODES.  INTERPRET RESULTS WITH CAUTION OR CONSIDER 
             SUBSTITUTING A BEAM OR LINK MPC.

 ***WARNING: NODES 4 INSTANCE PART-2-1 AND 1 (ASSEMBLY) IN THE TIE MPC ARE NOT 
             COINCIDENT.  THE MPC WILL CONSTRAIN ROTATIONAL RIGID-BODY MOTION 
             BETWEEN THE NODES.  INTERPRET RESULTS WITH CAUTION OR CONSIDER 
             SUBSTITUTING A BEAM OR LINK MPC.

 ***WARNING: NODES 5 INSTANCE PART-2-1 AND 1 (ASSEMBLY) IN THE TIE MPC ARE NOT 
             COINCIDENT.  THE MPC WILL CONSTRAIN ROTATIONAL RIGID-BODY MOTION 
             BETWEEN THE NODES.  INTERPRET RESULTS WITH CAUTION OR CONSIDER 
             SUBSTITUTING A BEAM OR LINK MPC.

 ***WARNING: NODES 8 INSTANCE PART-2-1 AND 1 (ASSEMBLY) IN THE TIE MPC ARE NOT 
             COINCIDENT.  THE MPC WILL CONSTRAIN ROTATIONAL RIGID-BODY MOTION 
             BETWEEN THE NODES.  INTERPRET RESULTS WITH CAUTION OR CONSIDER 
             SUBSTITUTING A BEAM OR LINK MPC.

 ***WARNING: NODES 11 INSTANCE PART-2-1 AND 1 (ASSEMBLY) IN THE TIE MPC ARE NOT 
             COINCIDENT.  THE MPC WILL CONSTRAIN ROTATIONAL RIGID-BODY MOTION 
             BETWEEN THE NODES.  INTERPRET RESULTS WITH CAUTION OR CONSIDER 
             SUBSTITUTING A BEAM OR LINK MPC.

 ***WARNING: NODES 12 INSTANCE PART-2-1 AND 1 (ASSEMBLY) IN THE TIE MPC ARE NOT 
             COINCIDENT.  THE MPC WILL CONSTRAIN ROTATIONAL RIGID-BODY MOTION 
             BETWEEN THE NODES.  INTERPRET RESULTS WITH CAUTION OR CONSIDER 
             SUBSTITUTING A BEAM OR LINK MPC.

 ***WARNING: NODES 13 INSTANCE PART-2-1 AND 1 (ASSEMBLY) IN THE TIE MPC ARE NOT 
             COINCIDENT.  THE MPC WILL CONSTRAIN ROTATIONAL RIGID-BODY MOTION 
             BETWEEN THE NODES.  INTERPRET RESULTS WITH CAUTION OR CONSIDER 
             SUBSTITUTING A BEAM OR LINK MPC.

 ***WARNING: NODES 16 INSTANCE PART-2-1 AND 1 (ASSEMBLY) IN THE TIE MPC ARE NOT 
             COINCIDENT.  THE MPC WILL CONSTRAIN ROTATIONAL RIGID-BODY MOTION 
             BETWEEN THE NODES.  INTERPRET RESULTS WITH CAUTION OR CONSIDER 
             SUBSTITUTING A BEAM OR LINK MPC.

 ***WARNING: NODES 75 INSTANCE PART-2-1 AND 1 (ASSEMBLY) IN THE TIE MPC ARE NOT 
             COINCIDENT.  THE MPC WILL CONSTRAIN ROTATIONAL RIGID-BODY MOTION 
             BETWEEN THE NODES.  INTERPRET RESULTS WITH CAUTION OR CONSIDER 
             SUBSTITUTING A BEAM OR LINK MPC.

 ***WARNING: NODES 137 INSTANCE PART-2-1 AND 1 (ASSEMBLY) IN THE TIE MPC ARE 
             NOT COINCIDENT.  THE MPC WILL CONSTRAIN ROTATIONAL RIGID-BODY 
             MOTION BETWEEN THE NODES.  INTERPRET RESULTS WITH CAUTION OR 
             CONSIDER SUBSTITUTING A BEAM OR LINK MPC.

 ***WARNING: NODES 138 INSTANCE PART-2-1 AND 1 (ASSEMBLY) IN THE TIE MPC ARE 
             NOT COINCIDENT.  THE MPC WILL CONSTRAIN ROTATIONAL RIGID-BODY 
             MOTION BETWEEN THE NODES.  INTERPRET RESULTS WITH CAUTION OR 
             CONSIDER SUBSTITUTING A BEAM OR LINK MPC.

 ***WARNING: NODES 139 INSTANCE PART-2-1 AND 1 (ASSEMBLY) IN THE TIE MPC ARE 
             NOT COINCIDENT.  THE MPC WILL CONSTRAIN ROTATIONAL RIGID-BODY 
             MOTION BETWEEN THE NODES.  INTERPRET RESULTS WITH CAUTION OR 
             CONSIDER SUBSTITUTING A BEAM OR LINK MPC.

 ***WARNING: NODES 140 INSTANCE PART-2-1 AND 1 (ASSEMBLY) IN THE TIE MPC ARE 
             NOT COINCIDENT.  THE MPC WILL CONSTRAIN ROTATIONAL RIGID-BODY 
             MOTION BETWEEN THE NODES.  INTERPRET RESULTS WITH CAUTION OR 
             CONSIDER SUBSTITUTING A BEAM OR LINK MPC.

 ***WARNING: NODES 256 INSTANCE PART-2-1 AND 1 (ASSEMBLY) IN THE TIE MPC ARE 
             NOT COINCIDENT.  THE MPC WILL CONSTRAIN ROTATIONAL RIGID-BODY 
             MOTION BETWEEN THE NODES.  INTERPRET RESULTS WITH CAUTION OR 
             CONSIDER SUBSTITUTING A BEAM OR LINK MPC.

 ***WARNING: NODES 315 INSTANCE PART-2-1 AND 1 (ASSEMBLY) IN THE TIE MPC ARE 
             NOT COINCIDENT.  THE MPC WILL CONSTRAIN ROTATIONAL RIGID-BODY 
             MOTION BETWEEN THE NODES.  INTERPRET RESULTS WITH CAUTION OR 
             CONSIDER SUBSTITUTING A BEAM OR LINK MPC.

 ***WARNING: NODES 377 INSTANCE PART-2-1 AND 1 (ASSEMBLY) IN THE TIE MPC ARE 
             NOT COINCIDENT.  THE MPC WILL CONSTRAIN ROTATIONAL RIGID-BODY 
             MOTION BETWEEN THE NODES.  INTERPRET RESULTS WITH CAUTION OR 
             CONSIDER SUBSTITUTING A BEAM OR LINK MPC.

 ***WARNING: NODES 378 INSTANCE PART-2-1 AND 1 (ASSEMBLY) IN THE TIE MPC ARE 
             NOT COINCIDENT.  THE MPC WILL CONSTRAIN ROTATIONAL RIGID-BODY 
             MOTION BETWEEN THE NODES.  INTERPRET RESULTS WITH CAUTION OR 
             CONSIDER SUBSTITUTING A BEAM OR LINK MPC.

 ***WARNING: NODES 379 INSTANCE PART-2-1 AND 1 (ASSEMBLY) IN THE TIE MPC ARE 
             NOT COINCIDENT.  THE MPC WILL CONSTRAIN ROTATIONAL RIGID-BODY 
             MOTION BETWEEN THE NODES.  INTERPRET RESULTS WITH CAUTION OR 
             CONSIDER SUBSTITUTING A BEAM OR LINK MPC.

 ***WARNING: NODES 380 INSTANCE PART-2-1 AND 1 (ASSEMBLY) IN THE TIE MPC ARE 
             NOT COINCIDENT.  THE MPC WILL CONSTRAIN ROTATIONAL RIGID-BODY 
             MOTION BETWEEN THE NODES.  INTERPRET RESULTS WITH CAUTION OR 
             CONSIDER SUBSTITUTING A BEAM OR LINK MPC.

 ***WARNING: NODES 496 INSTANCE PART-2-1 AND 1 (ASSEMBLY) IN THE TIE MPC ARE 
             NOT COINCIDENT.  THE MPC WILL CONSTRAIN ROTATIONAL RIGID-BODY 
             MOTION BETWEEN THE NODES.  INTERPRET RESULTS WITH CAUTION OR 
             CONSIDER SUBSTITUTING A BEAM OR LINK MPC.

 ***WARNING: NODES 727 INSTANCE PART-2-1 AND 1 (ASSEMBLY) IN THE TIE MPC ARE 
             NOT COINCIDENT.  THE MPC WILL CONSTRAIN ROTATIONAL RIGID-BODY 
             MOTION BETWEEN THE NODES.  INTERPRET RESULTS WITH CAUTION OR 
             CONSIDER SUBSTITUTING A BEAM OR LINK MPC.

 ***WARNING: NODES 728 INSTANCE PART-2-1 AND 1 (ASSEMBLY) IN THE TIE MPC ARE 
             NOT COINCIDENT.  THE MPC WILL CONSTRAIN ROTATIONAL RIGID-BODY 
             MOTION BETWEEN THE NODES.  INTERPRET RESULTS WITH CAUTION OR 
             CONSIDER SUBSTITUTING A BEAM OR LINK MPC.

 ***WARNING: NODES 959 INSTANCE PART-2-1 AND 1 (ASSEMBLY) IN THE TIE MPC ARE 
             NOT COINCIDENT.  THE MPC WILL CONSTRAIN ROTATIONAL RIGID-BODY 
             MOTION BETWEEN THE NODES.  INTERPRET RESULTS WITH CAUTION OR 
             CONSIDER SUBSTITUTING A BEAM OR LINK MPC.

 ***WARNING: NODES 960 INSTANCE PART-2-1 AND 1 (ASSEMBLY) IN THE TIE MPC ARE 
             NOT COINCIDENT.  THE MPC WILL CONSTRAIN ROTATIONAL RIGID-BODY 
             MOTION BETWEEN THE NODES.  INTERPRET RESULTS WITH CAUTION OR 
             CONSIDER SUBSTITUTING A BEAM OR LINK MPC.

 ***ERROR: DEGREE OF FREEDOM 6 IS NOT ACTIVE ON NODE 1 (ASSEMBLY) - THIS 
           LOADING IS NOT VALID
 ***NOTE: DUE TO AN INPUT ERROR THE ANALYSIS PRE-PROCESSOR HAS BEEN UNABLE TO 
          INTERPRET SOME DATA.  SUBSEQUENT ERRORS MAY BE CAUSED BY THIS OMISSION

 ***ERROR: 1 nodes have inactive dof on which boundary conditions are 
           specified. The nodes have been identified in node set 
           ErrNodeBCInactiveDof.



                            P R O B L E M   S I Z E


          NUMBER OF ELEMENTS IS                                   696
          NUMBER OF NODES IS                                     1417
          NUMBER OF NODES DEFINED BY THE USER                    1417
          TOTAL NUMBER OF VARIABLES IN THE MODEL                 4251
          (DEGREES OF FREEDOM PLUS MAX NO. OF ANY LAGRANGE MULTIPLIER
           VARIABLES. INCLUDE *PRINT,SOLVE=YES TO GET THE ACTUAL NUMBER.)





          THE PROGRAM HAS DISCOVERED     2 FATAL ERRORS

               ** EXECUTION IS TERMINATED **



                              END OF USER INPUT PROCESSING



     JOB TIME SUMMARY
       USER TIME (SEC)      =     0.10    
       SYSTEM TIME (SEC)    =      0.0    
       TOTAL CPU TIME (SEC) =     0.10    
       WALLCLOCK TIME (SEC) =            0
