1

   Abaqus 2023                                  Date 16-Jul-2024   Time 09:58:16
   For use by TEXAS A_M UNIVERSITY SYSTEM under license from Dassault Systemes or its subsidiary.



                         The Abaqus Software is a product of:

                           Dassault Systemes SIMULIA Corp.
                           1301 Atwood Avenue, Suite 101W
                              Johnston, RI 02919, USA
 


                   The Abaqus Software is available only under license
                   from Dassault Systemes or its subsidiary and may be
                   used or reproduced only in accordance with the terms
                   of such license.
 
                          On machine BCDC-HCLQCX3 
                          you are authorized to run
                          Abaqus/Standard until 30-Oct-2024

                          Your site id is: 200000000002185 


 
                    For assistance or any other information you may
                    obtain contact information for your local office
                    from the world wide web at:

                      http://www.3ds.com/products/simulia/locations/

 
                * * * * * * * * * * * * * * * * * * * * * * * * * * * * * * 
                *                                                         * 
                *                   *****************                     * 
                *                   *  N O T I C E  *                     * 
                *                   *****************                     * 
                *                                                         * 
                *                                                         * 
                *                       Abaqus 2023                       * 
                *                                                         * 
                *          BUILD ID: 2022_09_28-13.11.55 183150           * 
                *                                                         * 
                *                                                         * 
                *  Please make sure you are using                         * 
                *  release Abaqus 2023 manuals                            * 
                *  plus the notes accompanying this release.              * 
                *                                                         * 
                *                                                         * 
                *                                                         * 
                *                                                         * 
                *                                                         * 
                *   This program may not be used for commercial purposes  * 
                *           without payment of a commercial fee.          * 
                *                                                         * 
                * * * * * * * * * * * * * * * * * * * * * * * * * * * * * * 


 



     PROCESSING PART, INSTANCE, AND ASSEMBLY INFORMATION
   *******************************************************


     END PROCESSING PART, INSTANCE, AND ASSEMBLY INFORMATION
   ***********************************************************




     OPTIONS BEING PROCESSED
   ***************************


  *Heading
  *Node
  *Element, type=C3D8R
  *Nset, nset=ASSEMBLY_CUT-1-1_SET-1
  *Elset, elset=ASSEMBLY_CUT-1-1_SET-1
  *Node
  *Element, type=R3D4
  *Nset, nset=ASSEMBLY_PART-1-RIGID-OUTER-1_PART-1-RIGID-OUTER-1-REFPT_
  *Elset, elset=ASSEMBLY_PART-1-RIGID-OUTER-1_PART-1-RIGID-OUTER-1
  *Node
  *Element, type=R3D4
  *Element, type=R3D3
  *Element, type=R3D4
  *Element, type=R3D3
  *Element, type=R3D4
  *Nset, nset=ASSEMBLY_PART-1-RIGID-INNER-1_PART-1-RIGID-INNER-1-REFPT_
  *Elset, elset=ASSEMBLY_PART-1-RIGID-INNER-1_PART-1-RIGID-INNER-1
  *Node
  *Nset, nset="ASSEMBLY__T-Datum csys-1"
  *Nset, nset=ASSEMBLY_SET-23
  *Nset, nset=ASSEMBLY_SET-27
  *Nset, nset=ASSEMBLY_SET-28
  *Nset, nset=ASSEMBLY_SET-29
  *Nset, nset=ASSEMBLY_SET-30
  *Nset, nset=ASSEMBLY_SET-31
  *Nset, nset=ASSEMBLY_SET-32
  *Nset, nset=ASSEMBLY_SET-33
  *Nset, nset=ASSEMBLY_SET-34
  *Nset, nset=ASSEMBLY_SET-35
  *Nset, nset=ASSEMBLY_SET-36
  *Nset, nset=ASSEMBLY__T-CYLINDRICAL
  *Elset, elset=ASSEMBLY_SET-30
  *Elset, elset=ASSEMBLY_SET-33
  *Elset, elset=ASSEMBLY_SET-34
  *Elset, elset=ASSEMBLY_SET-35
  *Elset, elset=ASSEMBLY_SET-36
  *Elset, elset=ASSEMBLY__M_SURF-3_SPOS
  *Elset, elset=ASSEMBLY__M_SURF-7_SPOS
  *Elset, elset=ASSEMBLY__S_SURF-3_S4
  *Elset, elset=ASSEMBLY__S_SURF-3_S5
  *Elset, elset=ASSEMBLY__S_SURF-3_S6
  *Elset, elset=ASSEMBLY__S_SURF-5_S3
  *material, name=MARAGING300STEEL
  *elastic
  *plastic
  *solidsection, elset=ASSEMBLY_CUT-1-1_SET-1, material=MARAGING300STEEL
  *solidsection, elset=ASSEMBLY_CUT-1-1_SET-1, material=MARAGING300STEEL
  *rigidbody, refnode=ASSEMBLY_PART-1-RIGID-OUTER-1_PART-1-RIGID-OUTER-1-REFPT_, elset=ASSEMBLY_PART-1-RIGID-OUTER-1_PART-1-RIGID-OUTER-1
  *rigidbody, refnode=ASSEMBLY_PART-1-RIGID-INNER-1_PART-1-RIGID-INNER-1-REFPT_, elset=ASSEMBLY_PART-1-RIGID-INNER-1_PART-1-RIGID-INNER-1
  *tie, name=ASSEMBLY_CONSTRAINT-1, adjust=YES
  *tie, name=ASSEMBLY_CONSTRAINT-2, adjust=YES
  *surface, type=ELEMENT, name=ASSEMBLY_M_SURF-3
  *surface, type=ELEMENT, name=ASSEMBLY_M_SURF-7
  *surface, type=ELEMENT, name=ASSEMBLY_S_SURF-3
  *surface, type=ELEMENT, name=ASSEMBLY_S_SURF-5
  *rigidbody, refnode=ASSEMBLY_PART-1-RIGID-OUTER-1_PART-1-RIGID-OUTER-1-REFPT_, elset=ASSEMBLY_PART-1-RIGID-OUTER-1_PART-1-RIGID-OUTER-1
  *rigidbody, refnode=ASSEMBLY_PART-1-RIGID-INNER-1_PART-1-RIGID-INNER-1-REFPT_, elset=ASSEMBLY_PART-1-RIGID-INNER-1_PART-1-RIGID-INNER-1
  *rigidbody, refnode=ASSEMBLY_PART-1-RIGID-OUTER-1_PART-1-RIGID-OUTER-1-REFPT_, elset=ASSEMBLY_PART-1-RIGID-OUTER-1_PART-1-RIGID-OUTER-1
  *rigidbody, refnode=ASSEMBLY_PART-1-RIGID-INNER-1_PART-1-RIGID-INNER-1-REFPT_, elset=ASSEMBLY_PART-1-RIGID-INNER-1_PART-1-RIGID-INNER-1
  *rigidbody, refnode=ASSEMBLY_PART-1-RIGID-OUTER-1_PART-1-RIGID-OUTER-1-REFPT_, elset=ASSEMBLY_PART-1-RIGID-OUTER-1_PART-1-RIGID-OUTER-1
  *rigidbody, refnode=ASSEMBLY_PART-1-RIGID-INNER-1_PART-1-RIGID-INNER-1-REFPT_, elset=ASSEMBLY_PART-1-RIGID-INNER-1_PART-1-RIGID-INNER-1
  *tie, name=ASSEMBLY_CONSTRAINT-1, adjust=YES
  *tie, name=ASSEMBLY_CONSTRAINT-2, adjust=YES
  *surface, type=ELEMENT, name=ASSEMBLY_M_SURF-3
  *surface, type=ELEMENT, name=ASSEMBLY_M_SURF-7
  *surface, type=ELEMENT, name=ASSEMBLY_S_SURF-3
  *surface, type=ELEMENT, name=ASSEMBLY_S_SURF-5
  *surface, type=ELEMENT, name=ASSEMBLY_M_SURF-3
  *surface, type=ELEMENT, name=ASSEMBLY_M_SURF-7
  *surface, type=ELEMENT, name=ASSEMBLY_S_SURF-3
  *surface, type=ELEMENT, name=ASSEMBLY_S_SURF-5
  *tie, name=ASSEMBLY_CONSTRAINT-1, adjust=YES
  *tie, name=ASSEMBLY_CONSTRAINT-2, adjust=YES
  *rigidbody, refnode=ASSEMBLY_PART-1-RIGID-OUTER-1_PART-1-RIGID-OUTER-1-REFPT_, elset=ASSEMBLY_PART-1-RIGID-OUTER-1_PART-1-RIGID-OUTER-1
  *rigidbody, refnode=ASSEMBLY_PART-1-RIGID-INNER-1_PART-1-RIGID-INNER-1-REFPT_, elset=ASSEMBLY_PART-1-RIGID-INNER-1_PART-1-RIGID-INNER-1
  *tie, name=ASSEMBLY_CONSTRAINT-1, adjust=YES
  *tie, name=ASSEMBLY_CONSTRAINT-2, adjust=YES
  *rigidbody, refnode=ASSEMBLY_PART-1-RIGID-OUTER-1_PART-1-RIGID-OUTER-1-REFPT_, elset=ASSEMBLY_PART-1-RIGID-OUTER-1_PART-1-RIGID-OUTER-1
  *rigidbody, refnode=ASSEMBLY_PART-1-RIGID-INNER-1_PART-1-RIGID-INNER-1-REFPT_, elset=ASSEMBLY_PART-1-RIGID-INNER-1_PART-1-RIGID-INNER-1
  *rigidbody, refnode=ASSEMBLY_PART-1-RIGID-OUTER-1_PART-1-RIGID-OUTER-1-REFPT_, elset=ASSEMBLY_PART-1-RIGID-OUTER-1_PART-1-RIGID-OUTER-1
  *rigidbody, refnode=ASSEMBLY_PART-1-RIGID-INNER-1_PART-1-RIGID-INNER-1-REFPT_, elset=ASSEMBLY_PART-1-RIGID-INNER-1_PART-1-RIGID-INNER-1
  *transform, nset=ASSEMBLY__T-CYLINDRICAL, type=C
  *transform, nset="ASSEMBLY__T-Datum csys-1"
  *boundary
  *boundary
  *boundary
  *boundary
  *tie, name=ASSEMBLY_CONSTRAINT-1, adjust=YES


  SECONDARY: ASSEMBLY_S_SURF-3                                                               
  MAIN :     ASSEMBLY_M_SURF-3                                                               
              DISTANCE
   NODE       ADJUSTED    REMARKS/WARNINGS

        11   1.02677E-03  ADJUSTED TO ( -2.4877    ,-0.23740    , 2.03757E-09).
        14   1.55905E-04  ADJUSTED TO ( -2.4961    , 0.13757    , 1.13992E-07).
        15   8.49935E-04  ADJUSTED TO ( -2.4897    , 0.21718    ,-3.08234E-08).
       247   1.14381E-03  ADJUSTED TO ( -2.4978    ,-7.12276E-02, 2.97581E-09).
       248   1.20146E-03  ADJUSTED TO ( -2.4979    , 6.76514E-02,-1.85169E-09).
       253   7.25182E-04  ADJUSTED TO ( -2.4852    ,-0.26493    , 3.00941E-16).
       258   7.99458E-04  ADJUSTED TO ( -2.4859    , 0.25742    , 9.01363E-09).
      1414   1.05204E-03  ADJUSTED TO ( -2.4876    ,-0.23740    , 0.12500    ).
      1417   7.02376E-05  ADJUSTED TO ( -2.4961    , 0.13758    , 0.12500    ).
      1418   1.00258E-03  ADJUSTED TO ( -2.4895    , 0.21717    , 0.12500    ).
      1650   1.11372E-03  ADJUSTED TO ( -2.4979    ,-7.12285E-02, 0.12500    ).
      1651   1.12290E-03  ADJUSTED TO ( -2.4980    , 6.76536E-02, 0.12500    ).
      1656   7.38707E-04  ADJUSTED TO ( -2.4852    ,-0.26493    , 0.12500    ).
      1661   8.45985E-04  ADJUSTED TO ( -2.4859    , 0.25741    , 0.12500    ).
      2817   1.05502E-03  ADJUSTED TO ( -2.4876    ,-0.23740    , 0.25000    ).
      2820   7.21997E-05  ADJUSTED TO ( -2.4961    , 0.13758    , 0.25000    ).
      2821   9.97914E-04  ADJUSTED TO ( -2.4895    , 0.21717    , 0.25000    ).
      3053   1.10997E-03  ADJUSTED TO ( -2.4979    ,-7.12286E-02, 0.25000    ).
      3054   1.12605E-03  ADJUSTED TO ( -2.4980    , 6.76535E-02, 0.25000    ).
      3059   7.40297E-04  ADJUSTED TO ( -2.4852    ,-0.26493    , 0.25000    ).




 ***WARNING: FOR *TIE PAIR (ASSEMBLY_S_SURF-3-ASSEMBLY_M_SURF-3), NOT ALL THE 
             NODES THAT HAVE BEEN ADJUSTED WERE PRINTED. SPECIFY 
             *PREPRINT,MODEL=YES FOR COMPLETE PRINTOUT.

 ***WARNING: FOR *TIE PAIR (ASSEMBLY_S_SURF-3-ASSEMBLY_M_SURF-3), ADJUSTED 
             NODES WITH VERY SMALL ADJUSTMENTS WERE NOT PRINTED. SPECIFY 
             *PREPRINT,MODEL=YES FOR COMPLETE PRINTOUT.
  *tie, name=ASSEMBLY_CONSTRAINT-2, adjust=YES

 ***WARNING: 28 nodes have been adjusted. The nodes have been identified in 
             node set WarnNodeAdjust.


  SECONDARY: ASSEMBLY_S_SURF-5                                                               
  MAIN :     ASSEMBLY_M_SURF-7                                                               
              DISTANCE
   NODE       ADJUSTED    REMARKS/WARNINGS

       130   6.26592E-03  ADJUSTED TO (-0.96775    , 0.22577    , 3.12355E-18).
       131   9.34845E-03  ADJUSTED TO (-0.97473    , 0.17691    , 6.80662E-17).
       132   1.00103E-02  ADJUSTED TO (-0.98126    , 0.13116    ,-2.86490E-17).
       133   8.60394E-03  ADJUSTED TO (-0.98757    , 8.70014E-02,-7.52882E-17).
       134   5.26159E-03  ADJUSTED TO (-0.99379    , 4.34890E-02,-3.28387E-17).
       136   5.26449E-03  ADJUSTED TO (-0.99378    ,-4.35180E-02,-4.99745E-17).
       137   8.60395E-03  ADJUSTED TO (-0.98757    ,-8.70023E-02,-7.71807E-17).
       138   1.00100E-02  ADJUSTED TO (-0.98127    ,-0.13113    , 3.58380E-18).
       139   9.35093E-03  ADJUSTED TO (-0.97474    ,-0.17685    , 1.53209E-17).
       140   6.27228E-03  ADJUSTED TO (-0.96776    ,-0.22570    , 9.83289E-17).
      1533   6.26592E-03  ADJUSTED TO (-0.96775    , 0.22577    , 0.12500    ).
      1534   9.34845E-03  ADJUSTED TO (-0.97473    , 0.17691    , 0.12500    ).
      1535   1.00103E-02  ADJUSTED TO (-0.98126    , 0.13116    , 0.12500    ).
      1536   8.60394E-03  ADJUSTED TO (-0.98757    , 8.70014E-02, 0.12500    ).
      1537   5.26159E-03  ADJUSTED TO (-0.99379    , 4.34890E-02, 0.12500    ).
      1539   5.26449E-03  ADJUSTED TO (-0.99378    ,-4.35180E-02, 0.12500    ).
      1540   8.60395E-03  ADJUSTED TO (-0.98757    ,-8.70023E-02, 0.12500    ).
      1541   1.00100E-02  ADJUSTED TO (-0.98127    ,-0.13113    , 0.12500    ).
      1542   9.35093E-03  ADJUSTED TO (-0.97474    ,-0.17685    , 0.12500    ).
      1543   6.27228E-03  ADJUSTED TO (-0.96776    ,-0.22570    , 0.12500    ).




 ***WARNING: FOR *TIE PAIR (ASSEMBLY_S_SURF-5-ASSEMBLY_M_SURF-7), NOT ALL THE 
             NODES THAT HAVE BEEN ADJUSTED WERE PRINTED. SPECIFY 
             *PREPRINT,MODEL=YES FOR COMPLETE PRINTOUT.

 ***WARNING: FOR *TIE PAIR (ASSEMBLY_S_SURF-5-ASSEMBLY_M_SURF-7), ADJUSTED 
             NODES WITH VERY SMALL ADJUSTMENTS WERE NOT PRINTED. SPECIFY 
             *PREPRINT,MODEL=YES FOR COMPLETE PRINTOUT.

 ***WARNING: 40 nodes have been adjusted. The nodes have been identified in 
             node set WarnNodeAdjust.
  *tie, name=ASSEMBLY_CONSTRAINT-1, adjust=YES
  *tie, name=ASSEMBLY_CONSTRAINT-2, adjust=YES
  *tie, name=ASSEMBLY_CONSTRAINT-1, adjust=YES
  *tie, name=ASSEMBLY_CONSTRAINT-2, adjust=YES
  *rigidbody, refnode=ASSEMBLY_PART-1-RIGID-OUTER-1_PART-1-RIGID-OUTER-1-REFPT_, elset=ASSEMBLY_PART-1-RIGID-OUTER-1_PART-1-RIGID-OUTER-1
  *rigidbody, refnode=ASSEMBLY_PART-1-RIGID-INNER-1_PART-1-RIGID-INNER-1-REFPT_, elset=ASSEMBLY_PART-1-RIGID-INNER-1_PART-1-RIGID-INNER-1
  *surface, type=ELEMENT, name=ASSEMBLY_M_SURF-3
  *surface, type=ELEMENT, name=ASSEMBLY_M_SURF-7
  *surface, type=ELEMENT, name=ASSEMBLY_S_SURF-3
  *surface, type=ELEMENT, name=ASSEMBLY_S_SURF-5
  *tie, name=ASSEMBLY_CONSTRAINT-1, adjust=YES
  *tie, name=ASSEMBLY_CONSTRAINT-2, adjust=YES
  *output, field, variable=PRESELECT
  *output, history, variable=PRESELECT
  *output, field, variable=PRESELECT
  *output, history, variable=PRESELECT
  *output, field, variable=PRESELECT
  *output, history, variable=PRESELECT
  
                               E L E M E N T   Q U A L I T Y  C H E C K S        
  
  
 ***NOTES: DISTORTED ISOPARAMETRIC ELEMENTS: ANGLE BETWEEN ISOPARAMETRIC LINES 
           IS LESS THAN 45 DEGREES OR GREATER THAN 135 DEGREES.
  
           TETRAHEDRAL QUALITY MEASURE: VOLUME OF TETRAHEDRON DIVIDED BY THE 
           VOLUME OF EQUILATERAL TETRAHEDRON WITH SAME CIRCUMSPHERE RADIUS; 
           0 FOR DEGENERATE TETRAHEDRON AND 1 FOR EQUILATERIAL TETRAHEDRON. IT 
           IS RECOMMENDED THAT THE TETRAHEDRAL QUALITY MEASURE BE GREATER THAN 
           0.02, THE MIN INTERIOR (DIHEDRAL) ANGLE BE GREATER THAN 10 DEGREES, 
           AND THE MAX INTERIOR (DIHEDRAL) ANGLE BE LESS THAN 160 DEGREES. 
  
           MODIFIED TETRAHEDRAL QUALITY MEASURE: ANGLES BETWEEN THE TWO LINE 
           SEGMENTS ON EACH EDGE; THE EDGES OF MODIFIED TETRAHEDRAL SHOULD BE 
           AS STRAIGHT AS POSSIBLE. IT IS RECOMMENDED THAT THE ANGLE BETWEEN 
           THE TWO LINE SEGMENTS ON EACH EDGE IS BETWEEN 160 AND 180 DEGREES. 
  
           TRIANGULAR QUALITY MEASURE: AREA OF TRIANGLE DIVIDED BY THE AREA OF 
           EQUILATERAL TRIANGLE WITH SAME CIRCUMCIRCLE RADIUS; 0 FOR DEGENERATE 
           TRIANGLE AND 1 FOR EQUILATERAL TRIANGLE. IT IS RECOMMENDED THAT THE
           TRIANGULAR QUALITY MEASURE BE GREATER THAN 0.01, THE MIN INTERIOR 
           ANGLE BE GREATER THAN 10 DEGREES, AND THE MAX INTERIOR ANGLE BE LESS 
           THAN 160 DEGREES. 
  
           NODAL ADJUSTMENTS ARISING FROM CONTACT INTERACTIONS AND/OR TIE 
           CONSTRAINTS CAN CAUSE SEVERE ELEMENT DISTORTION. IT MAY BE NECESSARY 
           TO REMESH IN ORDER TO REDUCE THE AMOUNT OF ADJUSTMENT. 

 ***WARNING: 12 elements are distorted. Either the isoparametric angles are out 
             of the suggested limits or the triangular or tetrahedral quality 
             measure is bad. The elements have been identified in element set 
             WarnElemDistorted.
  
 --------------------------------------------------------------------------------
 Distorted isoparametric elements
  
      Element       Min/max angle   Adjusted nodes 
 ----------------- ---------------- -------------- 
      CUT-1-1.1226          40.5624       NO       
      CUT-1-1.1235           40.099       NO       
      CUT-1-1.1277          24.9948      YES       
      CUT-1-1.1281           27.811      YES       
      CUT-1-1.2508          40.5624       NO       
      CUT-1-1.2517           40.099       NO       
      CUT-1-1.2559          24.9733      YES       
      CUT-1-1.2563          27.7593      YES       
      CUT-1-1.3790          40.5624       NO       
      CUT-1-1.3799           40.099       NO       
      CUT-1-1.3841          24.9856      YES       
      CUT-1-1.3845          27.8186      YES       
  
  
  *Step, name=Step-1, nlgeom=NO
  *output, field, variable=PRESELECT
  *output, history, variable=PRESELECT
  *Step, name=Step-1, nlgeom=NO

 ***WARNING: NODE SET ASSEMBLY_SET-23 HAS NO MEMBERS AND WILL BE IGNORED.  
             NODES DEFINED IN THIS SET MAY HAVE BEEN DELETED BECAUSE THEY WERE 
             NOT CONNECTED TO ANY ELEMENTS.

 ***WARNING: NODE SET ASSEMBLY_SET-29 HAS NO MEMBERS AND WILL BE IGNORED.  
             NODES DEFINED IN THIS SET MAY HAVE BEEN DELETED BECAUSE THEY WERE 
             NOT CONNECTED TO ANY ELEMENTS.
  *Step, name=Step-1, nlgeom=NO
  *static
  *output, field, variable=PRESELECT
  *output, history, variable=PRESELECT
  *endstep
  *boundary
  *boundary
  *Step, name=Step-1, nlgeom=NO
  *static
  *cload, follower
  *endstep

 ***WARNING: OVERCONSTRAINT CHECKS: THERE ARE BOUNDARY CONDITIONS SPECIFIED AT 
             DEPENDENT NODES BELONGING TO THE RIGID BODY WITH REFERENCE NODE 
             142 INSTANCE PART-1-RIGID-INNER-1. ALSO, DIFFERENT *TRANSFORM 
             OPTIONS WERE USED AT THESE NODES AND/OR AT THE REFERENCE NODE. 
             OVERCONSTRAINT CHECKS CANNOT BE PERFORMED AND THESE BOUNDARY 
             CONDITIONS WILL BE NEGLECTED. EITHER PLACE APPROPRIATE BOUNDARY 
             CONDITIONS AT THE REFERENCE NODE OR USE THE SAME *TRANSFORM AT ALL 
             NODES WITH BOUNDARY CONDITIONS IN THIS RIGID BODY.

 ***WARNING: OVERCONSTRAINT CHECKS: THERE ARE BOUNDARY CONDITIONS SPECIFIED AT 
             DEPENDENT NODES BELONGING TO THE RIGID BODY WITH REFERENCE NODE 
             142 INSTANCE PART-1-RIGID-INNER-1. ALSO, DIFFERENT *TRANSFORM 
             OPTIONS WERE USED AT THESE NODES AND/OR AT THE REFERENCE NODE. 
             OVERCONSTRAINT CHECKS CANNOT BE PERFORMED AND THESE BOUNDARY 
             CONDITIONS WILL BE NEGLECTED. EITHER PLACE APPROPRIATE BOUNDARY 
             CONDITIONS AT THE REFERENCE NODE OR USE THE SAME *TRANSFORM AT ALL 
             NODES WITH BOUNDARY CONDITIONS IN THIS RIGID BODY.

 ***WARNING: Nodes belonging to 1 RIGID BODIES have boundary conditions 
             prescribed at nodes other than the reference node(s). Because 
             different *TRANSFORM options have been used at these nodes. these 
             boundary conditions cannot be transferred to the correspondent 
             reference node(s). Furthermore, these boundary conditions will be 
             neglected.The reference node(s) of these rigid bodies have been 
             identified in node set WarnNodeOverconBoundRBTra.

 ***WARNING: DEGREE OF FREEDOM 1 IS NOT ACTIVE ON NODE 7 INSTANCE 
             PART-1-RIGID-OUTER-1 - THIS BOUNDARY CONDITION IS IGNORED

 ***WARNING: DEGREE OF FREEDOM 3 IS NOT ACTIVE ON NODE 7 INSTANCE 
             PART-1-RIGID-OUTER-1 - THIS BOUNDARY CONDITION IS IGNORED

 ***WARNING: DEGREE OF FREEDOM 1 IS NOT ACTIVE ON NODE 8 INSTANCE 
             PART-1-RIGID-OUTER-1 - THIS BOUNDARY CONDITION IS IGNORED

 ***WARNING: DEGREE OF FREEDOM 3 IS NOT ACTIVE ON NODE 8 INSTANCE 
             PART-1-RIGID-OUTER-1 - THIS BOUNDARY CONDITION IS IGNORED

 ***WARNING: DEGREE OF FREEDOM 1 IS NOT ACTIVE ON NODE 17 INSTANCE 
             PART-1-RIGID-OUTER-1 - THIS BOUNDARY CONDITION IS IGNORED

 ***WARNING: DEGREE OF FREEDOM 3 IS NOT ACTIVE ON NODE 17 INSTANCE 
             PART-1-RIGID-OUTER-1 - THIS BOUNDARY CONDITION IS IGNORED

 ***WARNING: DEGREE OF FREEDOM 1 IS NOT ACTIVE ON NODE 18 INSTANCE 
             PART-1-RIGID-OUTER-1 - THIS BOUNDARY CONDITION IS IGNORED

 ***WARNING: DEGREE OF FREEDOM 3 IS NOT ACTIVE ON NODE 18 INSTANCE 
             PART-1-RIGID-OUTER-1 - THIS BOUNDARY CONDITION IS IGNORED

 ***WARNING: DEGREE OF FREEDOM 1 IS NOT ACTIVE ON NODE 19 INSTANCE 
             PART-1-RIGID-OUTER-1 - THIS BOUNDARY CONDITION IS IGNORED

 ***WARNING: DEGREE OF FREEDOM 3 IS NOT ACTIVE ON NODE 19 INSTANCE 
             PART-1-RIGID-OUTER-1 - THIS BOUNDARY CONDITION IS IGNORED

 ***WARNING: DEGREE OF FREEDOM 1 IS NOT ACTIVE ON NODE 20 INSTANCE 
             PART-1-RIGID-OUTER-1 - THIS BOUNDARY CONDITION IS IGNORED

 ***WARNING: DEGREE OF FREEDOM 3 IS NOT ACTIVE ON NODE 20 INSTANCE 
             PART-1-RIGID-OUTER-1 - THIS BOUNDARY CONDITION IS IGNORED

 ***WARNING: DEGREE OF FREEDOM 1 IS NOT ACTIVE ON NODE 21 INSTANCE 
             PART-1-RIGID-OUTER-1 - THIS BOUNDARY CONDITION IS IGNORED

 ***WARNING: DEGREE OF FREEDOM 3 IS NOT ACTIVE ON NODE 21 INSTANCE 
             PART-1-RIGID-OUTER-1 - THIS BOUNDARY CONDITION IS IGNORED

 ***WARNING: DEGREE OF FREEDOM 1 IS NOT ACTIVE ON NODE 22 INSTANCE 
             PART-1-RIGID-OUTER-1 - THIS BOUNDARY CONDITION IS IGNORED

 ***WARNING: DEGREE OF FREEDOM 3 IS NOT ACTIVE ON NODE 22 INSTANCE 
             PART-1-RIGID-OUTER-1 - THIS BOUNDARY CONDITION IS IGNORED

 ***WARNING: DEGREE OF FREEDOM 1 IS NOT ACTIVE ON NODE 23 INSTANCE 
             PART-1-RIGID-OUTER-1 - THIS BOUNDARY CONDITION IS IGNORED

 ***WARNING: DEGREE OF FREEDOM 3 IS NOT ACTIVE ON NODE 23 INSTANCE 
             PART-1-RIGID-OUTER-1 - THIS BOUNDARY CONDITION IS IGNORED

 ***WARNING: DEGREE OF FREEDOM 1 IS NOT ACTIVE ON NODE 24 INSTANCE 
             PART-1-RIGID-OUTER-1 - THIS BOUNDARY CONDITION IS IGNORED

 ***WARNING: DEGREE OF FREEDOM 3 IS NOT ACTIVE ON NODE 24 INSTANCE 
             PART-1-RIGID-OUTER-1 - THIS BOUNDARY CONDITION IS IGNORED

 ***WARNING: DEGREE OF FREEDOM 1 IS NOT ACTIVE ON NODE 25 INSTANCE 
             PART-1-RIGID-OUTER-1 - THIS BOUNDARY CONDITION IS IGNORED

 ***WARNING: DEGREE OF FREEDOM 3 IS NOT ACTIVE ON NODE 25 INSTANCE 
             PART-1-RIGID-OUTER-1 - THIS BOUNDARY CONDITION IS IGNORED

 ***WARNING: DEGREE OF FREEDOM 1 IS NOT ACTIVE ON NODE 26 INSTANCE 
             PART-1-RIGID-OUTER-1 - THIS BOUNDARY CONDITION IS IGNORED

 ***WARNING: DEGREE OF FREEDOM 3 IS NOT ACTIVE ON NODE 26 INSTANCE 
             PART-1-RIGID-OUTER-1 - THIS BOUNDARY CONDITION IS IGNORED

 ***WARNING: DEGREE OF FREEDOM 1 IS NOT ACTIVE ON NODE 27 INSTANCE 
             PART-1-RIGID-OUTER-1 - THIS BOUNDARY CONDITION IS IGNORED

 ***WARNING: DEGREE OF FREEDOM 3 IS NOT ACTIVE ON NODE 27 INSTANCE 
             PART-1-RIGID-OUTER-1 - THIS BOUNDARY CONDITION IS IGNORED

 ***WARNING: DEGREE OF FREEDOM 1 IS NOT ACTIVE ON NODE 28 INSTANCE 
             PART-1-RIGID-OUTER-1 - THIS BOUNDARY CONDITION IS IGNORED

 ***WARNING: DEGREE OF FREEDOM 3 IS NOT ACTIVE ON NODE 28 INSTANCE 
             PART-1-RIGID-OUTER-1 - THIS BOUNDARY CONDITION IS IGNORED

 ***WARNING: DEGREE OF FREEDOM 1 IS NOT ACTIVE ON NODE 29 INSTANCE 
             PART-1-RIGID-OUTER-1 - THIS BOUNDARY CONDITION IS IGNORED

 ***WARNING: DEGREE OF FREEDOM 3 IS NOT ACTIVE ON NODE 29 INSTANCE 
             PART-1-RIGID-OUTER-1 - THIS BOUNDARY CONDITION IS IGNORED

 ***WARNING: DEGREE OF FREEDOM 1 IS NOT ACTIVE ON NODE 30 INSTANCE 
             PART-1-RIGID-OUTER-1 - THIS BOUNDARY CONDITION IS IGNORED

 ***WARNING: DEGREE OF FREEDOM 3 IS NOT ACTIVE ON NODE 30 INSTANCE 
             PART-1-RIGID-OUTER-1 - THIS BOUNDARY CONDITION IS IGNORED

 ***WARNING: DEGREE OF FREEDOM 1 IS NOT ACTIVE ON NODE 31 INSTANCE 
             PART-1-RIGID-OUTER-1 - THIS BOUNDARY CONDITION IS IGNORED

 ***WARNING: DEGREE OF FREEDOM 3 IS NOT ACTIVE ON NODE 31 INSTANCE 
             PART-1-RIGID-OUTER-1 - THIS BOUNDARY CONDITION IS IGNORED

 ***WARNING: DEGREE OF FREEDOM 1 IS NOT ACTIVE ON NODE 32 INSTANCE 
             PART-1-RIGID-OUTER-1 - THIS BOUNDARY CONDITION IS IGNORED

 ***WARNING: DEGREE OF FREEDOM 3 IS NOT ACTIVE ON NODE 32 INSTANCE 
             PART-1-RIGID-OUTER-1 - THIS BOUNDARY CONDITION IS IGNORED

 ***WARNING: DEGREE OF FREEDOM 1 IS NOT ACTIVE ON NODE 33 INSTANCE 
             PART-1-RIGID-OUTER-1 - THIS BOUNDARY CONDITION IS IGNORED

 ***WARNING: DEGREE OF FREEDOM 3 IS NOT ACTIVE ON NODE 33 INSTANCE 
             PART-1-RIGID-OUTER-1 - THIS BOUNDARY CONDITION IS IGNORED

 ***WARNING: DEGREE OF FREEDOM 1 IS NOT ACTIVE ON NODE 34 INSTANCE 
             PART-1-RIGID-OUTER-1 - THIS BOUNDARY CONDITION IS IGNORED

 ***WARNING: DEGREE OF FREEDOM 3 IS NOT ACTIVE ON NODE 34 INSTANCE 
             PART-1-RIGID-OUTER-1 - THIS BOUNDARY CONDITION IS IGNORED

 ***WARNING: DEGREE OF FREEDOM 1 IS NOT ACTIVE ON NODE 35 INSTANCE 
             PART-1-RIGID-OUTER-1 - THIS BOUNDARY CONDITION IS IGNORED

 ***WARNING: DEGREE OF FREEDOM 3 IS NOT ACTIVE ON NODE 35 INSTANCE 
             PART-1-RIGID-OUTER-1 - THIS BOUNDARY CONDITION IS IGNORED

 ***WARNING: DEGREE OF FREEDOM 1 IS NOT ACTIVE ON NODE 36 INSTANCE 
             PART-1-RIGID-OUTER-1 - THIS BOUNDARY CONDITION IS IGNORED

 ***WARNING: DEGREE OF FREEDOM 3 IS NOT ACTIVE ON NODE 36 INSTANCE 
             PART-1-RIGID-OUTER-1 - THIS BOUNDARY CONDITION IS IGNORED

 ***WARNING: DEGREE OF FREEDOM 1 IS NOT ACTIVE ON NODE 37 INSTANCE 
             PART-1-RIGID-OUTER-1 - THIS BOUNDARY CONDITION IS IGNORED

 ***WARNING: DEGREE OF FREEDOM 3 IS NOT ACTIVE ON NODE 37 INSTANCE 
             PART-1-RIGID-OUTER-1 - THIS BOUNDARY CONDITION IS IGNORED

 ***WARNING: DEGREE OF FREEDOM 1 IS NOT ACTIVE ON NODE 38 INSTANCE 
             PART-1-RIGID-OUTER-1 - THIS BOUNDARY CONDITION IS IGNORED

 ***WARNING: DEGREE OF FREEDOM 3 IS NOT ACTIVE ON NODE 38 INSTANCE 
             PART-1-RIGID-OUTER-1 - THIS BOUNDARY CONDITION IS IGNORED

 ***WARNING: DEGREE OF FREEDOM 1 IS NOT ACTIVE ON NODE 39 INSTANCE 
             PART-1-RIGID-OUTER-1 - THIS BOUNDARY CONDITION IS IGNORED

 ***WARNING: DEGREE OF FREEDOM 3 IS NOT ACTIVE ON NODE 39 INSTANCE 
             PART-1-RIGID-OUTER-1 - THIS BOUNDARY CONDITION IS IGNORED

 ***WARNING: DEGREE OF FREEDOM 1 IS NOT ACTIVE ON NODE 40 INSTANCE 
             PART-1-RIGID-OUTER-1 - THIS BOUNDARY CONDITION IS IGNORED

 ***WARNING: DEGREE OF FREEDOM 3 IS NOT ACTIVE ON NODE 40 INSTANCE 
             PART-1-RIGID-OUTER-1 - THIS BOUNDARY CONDITION IS IGNORED

 ***WARNING: DEGREE OF FREEDOM 1 IS NOT ACTIVE ON NODE 41 INSTANCE 
             PART-1-RIGID-OUTER-1 - THIS BOUNDARY CONDITION IS IGNORED

 ***WARNING: DEGREE OF FREEDOM 3 IS NOT ACTIVE ON NODE 41 INSTANCE 
             PART-1-RIGID-OUTER-1 - THIS BOUNDARY CONDITION IS IGNORED

 ***WARNING: DEGREE OF FREEDOM 1 IS NOT ACTIVE ON NODE 42 INSTANCE 
             PART-1-RIGID-OUTER-1 - THIS BOUNDARY CONDITION IS IGNORED

 ***WARNING: DEGREE OF FREEDOM 3 IS NOT ACTIVE ON NODE 42 INSTANCE 
             PART-1-RIGID-OUTER-1 - THIS BOUNDARY CONDITION IS IGNORED

 ***WARNING: DEGREE OF FREEDOM 1 IS NOT ACTIVE ON NODE 43 INSTANCE 
             PART-1-RIGID-OUTER-1 - THIS BOUNDARY CONDITION IS IGNORED

 ***WARNING: DEGREE OF FREEDOM 3 IS NOT ACTIVE ON NODE 43 INSTANCE 
             PART-1-RIGID-OUTER-1 - THIS BOUNDARY CONDITION IS IGNORED

 ***WARNING: DEGREE OF FREEDOM 1 IS NOT ACTIVE ON NODE 44 INSTANCE 
             PART-1-RIGID-OUTER-1 - THIS BOUNDARY CONDITION IS IGNORED

 ***WARNING: DEGREE OF FREEDOM 3 IS NOT ACTIVE ON NODE 44 INSTANCE 
             PART-1-RIGID-OUTER-1 - THIS BOUNDARY CONDITION IS IGNORED

 ***WARNING: DEGREE OF FREEDOM 1 IS NOT ACTIVE ON NODE 45 INSTANCE 
             PART-1-RIGID-OUTER-1 - THIS BOUNDARY CONDITION IS IGNORED

 ***WARNING: DEGREE OF FREEDOM 3 IS NOT ACTIVE ON NODE 45 INSTANCE 
             PART-1-RIGID-OUTER-1 - THIS BOUNDARY CONDITION IS IGNORED

 ***WARNING: DEGREE OF FREEDOM 1 IS NOT ACTIVE ON NODE 46 INSTANCE 
             PART-1-RIGID-OUTER-1 - THIS BOUNDARY CONDITION IS IGNORED

 ***WARNING: DEGREE OF FREEDOM 3 IS NOT ACTIVE ON NODE 46 INSTANCE 
             PART-1-RIGID-OUTER-1 - THIS BOUNDARY CONDITION IS IGNORED

 ***WARNING: DEGREE OF FREEDOM 1 IS NOT ACTIVE ON NODE 47 INSTANCE 
             PART-1-RIGID-OUTER-1 - THIS BOUNDARY CONDITION IS IGNORED

 ***WARNING: DEGREE OF FREEDOM 3 IS NOT ACTIVE ON NODE 47 INSTANCE 
             PART-1-RIGID-OUTER-1 - THIS BOUNDARY CONDITION IS IGNORED

 ***WARNING: DEGREE OF FREEDOM 1 IS NOT ACTIVE ON NODE 48 INSTANCE 
             PART-1-RIGID-OUTER-1 - THIS BOUNDARY CONDITION IS IGNORED

 ***WARNING: DEGREE OF FREEDOM 3 IS NOT ACTIVE ON NODE 48 INSTANCE 
             PART-1-RIGID-OUTER-1 - THIS BOUNDARY CONDITION IS IGNORED

 ***WARNING: DEGREE OF FREEDOM 1 IS NOT ACTIVE ON NODE 49 INSTANCE 
             PART-1-RIGID-OUTER-1 - THIS BOUNDARY CONDITION IS IGNORED

 ***WARNING: DEGREE OF FREEDOM 3 IS NOT ACTIVE ON NODE 49 INSTANCE 
             PART-1-RIGID-OUTER-1 - THIS BOUNDARY CONDITION IS IGNORED

 ***WARNING: DEGREE OF FREEDOM 1 IS NOT ACTIVE ON NODE 50 INSTANCE 
             PART-1-RIGID-OUTER-1 - THIS BOUNDARY CONDITION IS IGNORED

 ***WARNING: DEGREE OF FREEDOM 3 IS NOT ACTIVE ON NODE 50 INSTANCE 
             PART-1-RIGID-OUTER-1 - THIS BOUNDARY CONDITION IS IGNORED

 ***WARNING: DEGREE OF FREEDOM 1 IS NOT ACTIVE ON NODE 51 INSTANCE 
             PART-1-RIGID-OUTER-1 - THIS BOUNDARY CONDITION IS IGNORED

 ***WARNING: DEGREE OF FREEDOM 3 IS NOT ACTIVE ON NODE 51 INSTANCE 
             PART-1-RIGID-OUTER-1 - THIS BOUNDARY CONDITION IS IGNORED

 ***WARNING: DEGREE OF FREEDOM 1 IS NOT ACTIVE ON NODE 52 INSTANCE 
             PART-1-RIGID-OUTER-1 - THIS BOUNDARY CONDITION IS IGNORED

 ***WARNING: DEGREE OF FREEDOM 3 IS NOT ACTIVE ON NODE 52 INSTANCE 
             PART-1-RIGID-OUTER-1 - THIS BOUNDARY CONDITION IS IGNORED

 ***WARNING: DEGREE OF FREEDOM 1 IS NOT ACTIVE ON NODE 53 INSTANCE 
             PART-1-RIGID-OUTER-1 - THIS BOUNDARY CONDITION IS IGNORED

 ***WARNING: DEGREE OF FREEDOM 3 IS NOT ACTIVE ON NODE 53 INSTANCE 
             PART-1-RIGID-OUTER-1 - THIS BOUNDARY CONDITION IS IGNORED

 ***WARNING: DEGREE OF FREEDOM 1 IS NOT ACTIVE ON NODE 54 INSTANCE 
             PART-1-RIGID-OUTER-1 - THIS BOUNDARY CONDITION IS IGNORED

 ***WARNING: DEGREE OF FREEDOM 3 IS NOT ACTIVE ON NODE 54 INSTANCE 
             PART-1-RIGID-OUTER-1 - THIS BOUNDARY CONDITION IS IGNORED

 ***WARNING: DEGREE OF FREEDOM 1 IS NOT ACTIVE ON NODE 55 INSTANCE 
             PART-1-RIGID-OUTER-1 - THIS BOUNDARY CONDITION IS IGNORED

 ***WARNING: DEGREE OF FREEDOM 3 IS NOT ACTIVE ON NODE 55 INSTANCE 
             PART-1-RIGID-OUTER-1 - THIS BOUNDARY CONDITION IS IGNORED

 ***WARNING: DEGREE OF FREEDOM 1 IS NOT ACTIVE ON NODE 56 INSTANCE 
             PART-1-RIGID-OUTER-1 - THIS BOUNDARY CONDITION IS IGNORED

 ***WARNING: DEGREE OF FREEDOM 3 IS NOT ACTIVE ON NODE 56 INSTANCE 
             PART-1-RIGID-OUTER-1 - THIS BOUNDARY CONDITION IS IGNORED

 ***WARNING: DEGREE OF FREEDOM 1 IS NOT ACTIVE ON NODE 57 INSTANCE 
             PART-1-RIGID-OUTER-1 - THIS BOUNDARY CONDITION IS IGNORED

 ***WARNING: DEGREE OF FREEDOM 3 IS NOT ACTIVE ON NODE 57 INSTANCE 
             PART-1-RIGID-OUTER-1 - THIS BOUNDARY CONDITION IS IGNORED

 ***WARNING: DEGREE OF FREEDOM 1 IS NOT ACTIVE ON NODE 58 INSTANCE 
             PART-1-RIGID-OUTER-1 - THIS BOUNDARY CONDITION IS IGNORED

 ***WARNING: DEGREE OF FREEDOM 3 IS NOT ACTIVE ON NODE 58 INSTANCE 
             PART-1-RIGID-OUTER-1 - THIS BOUNDARY CONDITION IS IGNORED

 ***WARNING: DEGREE OF FREEDOM 1 IS NOT ACTIVE ON NODE 59 INSTANCE 
             PART-1-RIGID-OUTER-1 - THIS BOUNDARY CONDITION IS IGNORED

 ***WARNING: DEGREE OF FREEDOM 3 IS NOT ACTIVE ON NODE 59 INSTANCE 
             PART-1-RIGID-OUTER-1 - THIS BOUNDARY CONDITION IS IGNORED

 ***WARNING: DEGREE OF FREEDOM 1 IS NOT ACTIVE ON NODE 60 INSTANCE 
             PART-1-RIGID-OUTER-1 - THIS BOUNDARY CONDITION IS IGNORED

 ***WARNING: DEGREE OF FREEDOM 3 IS NOT ACTIVE ON NODE 60 INSTANCE 
             PART-1-RIGID-OUTER-1 - THIS BOUNDARY CONDITION IS IGNORED

 ***WARNING: DEGREE OF FREEDOM 1 IS NOT ACTIVE ON NODE 61 INSTANCE 
             PART-1-RIGID-OUTER-1 - THIS BOUNDARY CONDITION IS IGNORED

 ***WARNING: DEGREE OF FREEDOM 3 IS NOT ACTIVE ON NODE 61 INSTANCE 
             PART-1-RIGID-OUTER-1 - THIS BOUNDARY CONDITION IS IGNORED

 ***WARNING: DEGREE OF FREEDOM 1 IS NOT ACTIVE ON NODE 62 INSTANCE 
             PART-1-RIGID-OUTER-1 - THIS BOUNDARY CONDITION IS IGNORED

 ***WARNING: DEGREE OF FREEDOM 3 IS NOT ACTIVE ON NODE 62 INSTANCE 
             PART-1-RIGID-OUTER-1 - THIS BOUNDARY CONDITION IS IGNORED

 ***WARNING: DEGREE OF FREEDOM 1 IS NOT ACTIVE ON NODE 63 INSTANCE 
             PART-1-RIGID-OUTER-1 - THIS BOUNDARY CONDITION IS IGNORED

 ***WARNING: DEGREE OF FREEDOM 3 IS NOT ACTIVE ON NODE 63 INSTANCE 
             PART-1-RIGID-OUTER-1 - THIS BOUNDARY CONDITION IS IGNORED

 ***WARNING: DEGREE OF FREEDOM 1 IS NOT ACTIVE ON NODE 64 INSTANCE 
             PART-1-RIGID-OUTER-1 - THIS BOUNDARY CONDITION IS IGNORED

 ***WARNING: DEGREE OF FREEDOM 3 IS NOT ACTIVE ON NODE 64 INSTANCE 
             PART-1-RIGID-OUTER-1 - THIS BOUNDARY CONDITION IS IGNORED

 ***WARNING: DEGREE OF FREEDOM 1 IS NOT ACTIVE ON NODE 65 INSTANCE 
             PART-1-RIGID-OUTER-1 - THIS BOUNDARY CONDITION IS IGNORED

 ***WARNING: DEGREE OF FREEDOM 3 IS NOT ACTIVE ON NODE 65 INSTANCE 
             PART-1-RIGID-OUTER-1 - THIS BOUNDARY CONDITION IS IGNORED

 ***WARNING: DEGREE OF FREEDOM 1 IS NOT ACTIVE ON NODE 66 INSTANCE 
             PART-1-RIGID-OUTER-1 - THIS BOUNDARY CONDITION IS IGNORED

 ***WARNING: DEGREE OF FREEDOM 3 IS NOT ACTIVE ON NODE 66 INSTANCE 
             PART-1-RIGID-OUTER-1 - THIS BOUNDARY CONDITION IS IGNORED

 ***WARNING: DEGREE OF FREEDOM 1 IS NOT ACTIVE ON NODE 67 INSTANCE 
             PART-1-RIGID-OUTER-1 - THIS BOUNDARY CONDITION IS IGNORED

 ***WARNING: DEGREE OF FREEDOM 3 IS NOT ACTIVE ON NODE 67 INSTANCE 
             PART-1-RIGID-OUTER-1 - THIS BOUNDARY CONDITION IS IGNORED

 ***WARNING: DEGREE OF FREEDOM 1 IS NOT ACTIVE ON NODE 68 INSTANCE 
             PART-1-RIGID-OUTER-1 - THIS BOUNDARY CONDITION IS IGNORED

 ***WARNING: DEGREE OF FREEDOM 3 IS NOT ACTIVE ON NODE 68 INSTANCE 
             PART-1-RIGID-OUTER-1 - THIS BOUNDARY CONDITION IS IGNORED

 ***WARNING: DEGREE OF FREEDOM 1 IS NOT ACTIVE ON NODE 69 INSTANCE 
             PART-1-RIGID-OUTER-1 - THIS BOUNDARY CONDITION IS IGNORED

 ***WARNING: DEGREE OF FREEDOM 3 IS NOT ACTIVE ON NODE 69 INSTANCE 
             PART-1-RIGID-OUTER-1 - THIS BOUNDARY CONDITION IS IGNORED

 ***WARNING: DEGREE OF FREEDOM 1 IS NOT ACTIVE ON NODE 70 INSTANCE 
             PART-1-RIGID-OUTER-1 - THIS BOUNDARY CONDITION IS IGNORED

 ***WARNING: DEGREE OF FREEDOM 3 IS NOT ACTIVE ON NODE 70 INSTANCE 
             PART-1-RIGID-OUTER-1 - THIS BOUNDARY CONDITION IS IGNORED

 ***WARNING: DEGREE OF FREEDOM 1 IS NOT ACTIVE ON NODE 71 INSTANCE 
             PART-1-RIGID-OUTER-1 - THIS BOUNDARY CONDITION IS IGNORED

 ***WARNING: DEGREE OF FREEDOM 3 IS NOT ACTIVE ON NODE 71 INSTANCE 
             PART-1-RIGID-OUTER-1 - THIS BOUNDARY CONDITION IS IGNORED

 ***WARNING: DEGREE OF FREEDOM 1 IS NOT ACTIVE ON NODE 72 INSTANCE 
             PART-1-RIGID-OUTER-1 - THIS BOUNDARY CONDITION IS IGNORED

 ***WARNING: DEGREE OF FREEDOM 3 IS NOT ACTIVE ON NODE 72 INSTANCE 
             PART-1-RIGID-OUTER-1 - THIS BOUNDARY CONDITION IS IGNORED

 ***WARNING: DEGREE OF FREEDOM 1 IS NOT ACTIVE ON NODE 73 INSTANCE 
             PART-1-RIGID-OUTER-1 - THIS BOUNDARY CONDITION IS IGNORED

 ***WARNING: DEGREE OF FREEDOM 3 IS NOT ACTIVE ON NODE 73 INSTANCE 
             PART-1-RIGID-OUTER-1 - THIS BOUNDARY CONDITION IS IGNORED

 ***WARNING: DEGREE OF FREEDOM 1 IS NOT ACTIVE ON NODE 74 INSTANCE 
             PART-1-RIGID-OUTER-1 - THIS BOUNDARY CONDITION IS IGNORED

 ***WARNING: DEGREE OF FREEDOM 3 IS NOT ACTIVE ON NODE 74 INSTANCE 
             PART-1-RIGID-OUTER-1 - THIS BOUNDARY CONDITION IS IGNORED

 ***WARNING: DEGREE OF FREEDOM 1 IS NOT ACTIVE ON NODE 75 INSTANCE 
             PART-1-RIGID-OUTER-1 - THIS BOUNDARY CONDITION IS IGNORED

 ***WARNING: DEGREE OF FREEDOM 3 IS NOT ACTIVE ON NODE 75 INSTANCE 
             PART-1-RIGID-OUTER-1 - THIS BOUNDARY CONDITION IS IGNORED

 ***WARNING: DEGREE OF FREEDOM 1 IS NOT ACTIVE ON NODE 76 INSTANCE 
             PART-1-RIGID-OUTER-1 - THIS BOUNDARY CONDITION IS IGNORED

 ***WARNING: DEGREE OF FREEDOM 3 IS NOT ACTIVE ON NODE 76 INSTANCE 
             PART-1-RIGID-OUTER-1 - THIS BOUNDARY CONDITION IS IGNORED

 ***WARNING: DEGREE OF FREEDOM 1 IS NOT ACTIVE ON NODE 77 INSTANCE 
             PART-1-RIGID-OUTER-1 - THIS BOUNDARY CONDITION IS IGNORED

 ***WARNING: DEGREE OF FREEDOM 3 IS NOT ACTIVE ON NODE 77 INSTANCE 
             PART-1-RIGID-OUTER-1 - THIS BOUNDARY CONDITION IS IGNORED

 ***WARNING: DEGREE OF FREEDOM 1 IS NOT ACTIVE ON NODE 78 INSTANCE 
             PART-1-RIGID-OUTER-1 - THIS BOUNDARY CONDITION IS IGNORED

 ***WARNING: DEGREE OF FREEDOM 3 IS NOT ACTIVE ON NODE 78 INSTANCE 
             PART-1-RIGID-OUTER-1 - THIS BOUNDARY CONDITION IS IGNORED

 ***WARNING: DEGREE OF FREEDOM 1 IS NOT ACTIVE ON NODE 79 INSTANCE 
             PART-1-RIGID-OUTER-1 - THIS BOUNDARY CONDITION IS IGNORED

 ***WARNING: DEGREE OF FREEDOM 3 IS NOT ACTIVE ON NODE 79 INSTANCE 
             PART-1-RIGID-OUTER-1 - THIS BOUNDARY CONDITION IS IGNORED

 ***WARNING: DEGREE OF FREEDOM 1 IS NOT ACTIVE ON NODE 80 INSTANCE 
             PART-1-RIGID-OUTER-1 - THIS BOUNDARY CONDITION IS IGNORED

 ***WARNING: DEGREE OF FREEDOM 3 IS NOT ACTIVE ON NODE 80 INSTANCE 
             PART-1-RIGID-OUTER-1 - THIS BOUNDARY CONDITION IS IGNORED

 ***WARNING: DEGREE OF FREEDOM 1 IS NOT ACTIVE ON NODE 81 INSTANCE 
             PART-1-RIGID-OUTER-1 - THIS BOUNDARY CONDITION IS IGNORED

 ***WARNING: DEGREE OF FREEDOM 3 IS NOT ACTIVE ON NODE 81 INSTANCE 
             PART-1-RIGID-OUTER-1 - THIS BOUNDARY CONDITION IS IGNORED

 ***WARNING: DEGREE OF FREEDOM 1 IS NOT ACTIVE ON NODE 82 INSTANCE 
             PART-1-RIGID-OUTER-1 - THIS BOUNDARY CONDITION IS IGNORED

 ***WARNING: DEGREE OF FREEDOM 3 IS NOT ACTIVE ON NODE 82 INSTANCE 
             PART-1-RIGID-OUTER-1 - THIS BOUNDARY CONDITION IS IGNORED

 ***WARNING: DEGREE OF FREEDOM 1 IS NOT ACTIVE ON NODE 83 INSTANCE 
             PART-1-RIGID-OUTER-1 - THIS BOUNDARY CONDITION IS IGNORED

 ***WARNING: DEGREE OF FREEDOM 3 IS NOT ACTIVE ON NODE 83 INSTANCE 
             PART-1-RIGID-OUTER-1 - THIS BOUNDARY CONDITION IS IGNORED

 ***WARNING: DEGREE OF FREEDOM 1 IS NOT ACTIVE ON NODE 84 INSTANCE 
             PART-1-RIGID-OUTER-1 - THIS BOUNDARY CONDITION IS IGNORED

 ***WARNING: DEGREE OF FREEDOM 3 IS NOT ACTIVE ON NODE 84 INSTANCE 
             PART-1-RIGID-OUTER-1 - THIS BOUNDARY CONDITION IS IGNORED

 ***WARNING: DEGREE OF FREEDOM 1 IS NOT ACTIVE ON NODE 85 INSTANCE 
             PART-1-RIGID-OUTER-1 - THIS BOUNDARY CONDITION IS IGNORED

 ***WARNING: DEGREE OF FREEDOM 3 IS NOT ACTIVE ON NODE 85 INSTANCE 
             PART-1-RIGID-OUTER-1 - THIS BOUNDARY CONDITION IS IGNORED

 ***WARNING: DEGREE OF FREEDOM 1 IS NOT ACTIVE ON NODE 86 INSTANCE 
             PART-1-RIGID-OUTER-1 - THIS BOUNDARY CONDITION IS IGNORED

 ***WARNING: DEGREE OF FREEDOM 3 IS NOT ACTIVE ON NODE 86 INSTANCE 
             PART-1-RIGID-OUTER-1 - THIS BOUNDARY CONDITION IS IGNORED

 ***WARNING: DEGREE OF FREEDOM 1 IS NOT ACTIVE ON NODE 87 INSTANCE 
             PART-1-RIGID-OUTER-1 - THIS BOUNDARY CONDITION IS IGNORED

 ***WARNING: DEGREE OF FREEDOM 3 IS NOT ACTIVE ON NODE 87 INSTANCE 
             PART-1-RIGID-OUTER-1 - THIS BOUNDARY CONDITION IS IGNORED

 ***WARNING: DEGREE OF FREEDOM 1 IS NOT ACTIVE ON NODE 88 INSTANCE 
             PART-1-RIGID-OUTER-1 - THIS BOUNDARY CONDITION IS IGNORED

 ***WARNING: DEGREE OF FREEDOM 3 IS NOT ACTIVE ON NODE 88 INSTANCE 
             PART-1-RIGID-OUTER-1 - THIS BOUNDARY CONDITION IS IGNORED

 ***WARNING: DEGREE OF FREEDOM 1 IS NOT ACTIVE ON NODE 89 INSTANCE 
             PART-1-RIGID-OUTER-1 - THIS BOUNDARY CONDITION IS IGNORED

 ***WARNING: DEGREE OF FREEDOM 3 IS NOT ACTIVE ON NODE 89 INSTANCE 
             PART-1-RIGID-OUTER-1 - THIS BOUNDARY CONDITION IS IGNORED

 ***WARNING: DEGREE OF FREEDOM 1 IS NOT ACTIVE ON NODE 90 INSTANCE 
             PART-1-RIGID-OUTER-1 - THIS BOUNDARY CONDITION IS IGNORED

 ***WARNING: DEGREE OF FREEDOM 3 IS NOT ACTIVE ON NODE 90 INSTANCE 
             PART-1-RIGID-OUTER-1 - THIS BOUNDARY CONDITION IS IGNORED

 ***WARNING: DEGREE OF FREEDOM 1 IS NOT ACTIVE ON NODE 91 INSTANCE 
             PART-1-RIGID-OUTER-1 - THIS BOUNDARY CONDITION IS IGNORED

 ***WARNING: DEGREE OF FREEDOM 3 IS NOT ACTIVE ON NODE 91 INSTANCE 
             PART-1-RIGID-OUTER-1 - THIS BOUNDARY CONDITION IS IGNORED

 ***WARNING: DEGREE OF FREEDOM 1 IS NOT ACTIVE ON NODE 92 INSTANCE 
             PART-1-RIGID-OUTER-1 - THIS BOUNDARY CONDITION IS IGNORED

 ***WARNING: DEGREE OF FREEDOM 3 IS NOT ACTIVE ON NODE 92 INSTANCE 
             PART-1-RIGID-OUTER-1 - THIS BOUNDARY CONDITION IS IGNORED

 ***WARNING: DEGREE OF FREEDOM 1 IS NOT ACTIVE ON NODE 93 INSTANCE 
             PART-1-RIGID-OUTER-1 - THIS BOUNDARY CONDITION IS IGNORED

 ***WARNING: DEGREE OF FREEDOM 3 IS NOT ACTIVE ON NODE 93 INSTANCE 
             PART-1-RIGID-OUTER-1 - THIS BOUNDARY CONDITION IS IGNORED

 ***WARNING: DEGREE OF FREEDOM 1 IS NOT ACTIVE ON NODE 94 INSTANCE 
             PART-1-RIGID-OUTER-1 - THIS BOUNDARY CONDITION IS IGNORED

 ***WARNING: DEGREE OF FREEDOM 3 IS NOT ACTIVE ON NODE 94 INSTANCE 
             PART-1-RIGID-OUTER-1 - THIS BOUNDARY CONDITION IS IGNORED

 ***WARNING: DEGREE OF FREEDOM 1 IS NOT ACTIVE ON NODE 95 INSTANCE 
             PART-1-RIGID-OUTER-1 - THIS BOUNDARY CONDITION IS IGNORED

 ***WARNING: DEGREE OF FREEDOM 3 IS NOT ACTIVE ON NODE 95 INSTANCE 
             PART-1-RIGID-OUTER-1 - THIS BOUNDARY CONDITION IS IGNORED

 ***WARNING: DEGREE OF FREEDOM 1 IS NOT ACTIVE ON NODE 96 INSTANCE 
             PART-1-RIGID-OUTER-1 - THIS BOUNDARY CONDITION IS IGNORED

 ***WARNING: DEGREE OF FREEDOM 3 IS NOT ACTIVE ON NODE 96 INSTANCE 
             PART-1-RIGID-OUTER-1 - THIS BOUNDARY CONDITION IS IGNORED

 ***WARNING: DEGREE OF FREEDOM 1 IS NOT ACTIVE ON NODE 97 INSTANCE 
             PART-1-RIGID-OUTER-1 - THIS BOUNDARY CONDITION IS IGNORED

 ***WARNING: DEGREE OF FREEDOM 3 IS NOT ACTIVE ON NODE 97 INSTANCE 
             PART-1-RIGID-OUTER-1 - THIS BOUNDARY CONDITION IS IGNORED

 ***WARNING: DEGREE OF FREEDOM 1 IS NOT ACTIVE ON NODE 98 INSTANCE 
             PART-1-RIGID-OUTER-1 - THIS BOUNDARY CONDITION IS IGNORED

 ***WARNING: DEGREE OF FREEDOM 3 IS NOT ACTIVE ON NODE 98 INSTANCE 
             PART-1-RIGID-OUTER-1 - THIS BOUNDARY CONDITION IS IGNORED

 ***WARNING: DEGREE OF FREEDOM 1 IS NOT ACTIVE ON NODE 99 INSTANCE 
             PART-1-RIGID-OUTER-1 - THIS BOUNDARY CONDITION IS IGNORED

 ***WARNING: DEGREE OF FREEDOM 3 IS NOT ACTIVE ON NODE 99 INSTANCE 
             PART-1-RIGID-OUTER-1 - THIS BOUNDARY CONDITION IS IGNORED

 ***WARNING: DEGREE OF FREEDOM 1 IS NOT ACTIVE ON NODE 100 INSTANCE 
             PART-1-RIGID-OUTER-1 - THIS BOUNDARY CONDITION IS IGNORED

 ***WARNING: DEGREE OF FREEDOM 3 IS NOT ACTIVE ON NODE 100 INSTANCE 
             PART-1-RIGID-OUTER-1 - THIS BOUNDARY CONDITION IS IGNORED

 ***WARNING: DEGREE OF FREEDOM 1 IS NOT ACTIVE ON NODE 101 INSTANCE 
             PART-1-RIGID-OUTER-1 - THIS BOUNDARY CONDITION IS IGNORED

 ***WARNING: DEGREE OF FREEDOM 3 IS NOT ACTIVE ON NODE 101 INSTANCE 
             PART-1-RIGID-OUTER-1 - THIS BOUNDARY CONDITION IS IGNORED

 ***WARNING: DEGREE OF FREEDOM 1 IS NOT ACTIVE ON NODE 102 INSTANCE 
             PART-1-RIGID-OUTER-1 - THIS BOUNDARY CONDITION IS IGNORED

 ***WARNING: DEGREE OF FREEDOM 3 IS NOT ACTIVE ON NODE 102 INSTANCE 
             PART-1-RIGID-OUTER-1 - THIS BOUNDARY CONDITION IS IGNORED

 ***WARNING: DEGREE OF FREEDOM 1 IS NOT ACTIVE ON NODE 103 INSTANCE 
             PART-1-RIGID-OUTER-1 - THIS BOUNDARY CONDITION IS IGNORED

 ***WARNING: DEGREE OF FREEDOM 3 IS NOT ACTIVE ON NODE 103 INSTANCE 
             PART-1-RIGID-OUTER-1 - THIS BOUNDARY CONDITION IS IGNORED

 ***WARNING: DEGREE OF FREEDOM 1 IS NOT ACTIVE ON NODE 104 INSTANCE 
             PART-1-RIGID-OUTER-1 - THIS BOUNDARY CONDITION IS IGNORED

 ***WARNING: DEGREE OF FREEDOM 3 IS NOT ACTIVE ON NODE 104 INSTANCE 
             PART-1-RIGID-OUTER-1 - THIS BOUNDARY CONDITION IS IGNORED

 ***WARNING: DEGREE OF FREEDOM 1 IS NOT ACTIVE ON NODE 105 INSTANCE 
             PART-1-RIGID-OUTER-1 - THIS BOUNDARY CONDITION IS IGNORED

 ***WARNING: DEGREE OF FREEDOM 3 IS NOT ACTIVE ON NODE 105 INSTANCE 
             PART-1-RIGID-OUTER-1 - THIS BOUNDARY CONDITION IS IGNORED

 ***WARNING: DEGREE OF FREEDOM 1 IS NOT ACTIVE ON NODE 106 INSTANCE 
             PART-1-RIGID-OUTER-1 - THIS BOUNDARY CONDITION IS IGNORED

 ***WARNING: DEGREE OF FREEDOM 3 IS NOT ACTIVE ON NODE 106 INSTANCE 
             PART-1-RIGID-OUTER-1 - THIS BOUNDARY CONDITION IS IGNORED

 ***WARNING: DEGREE OF FREEDOM 1 IS NOT ACTIVE ON NODE 107 INSTANCE 
             PART-1-RIGID-OUTER-1 - THIS BOUNDARY CONDITION IS IGNORED

 ***WARNING: DEGREE OF FREEDOM 3 IS NOT ACTIVE ON NODE 107 INSTANCE 
             PART-1-RIGID-OUTER-1 - THIS BOUNDARY CONDITION IS IGNORED

 ***WARNING: DEGREE OF FREEDOM 1 IS NOT ACTIVE ON NODE 108 INSTANCE 
             PART-1-RIGID-OUTER-1 - THIS BOUNDARY CONDITION IS IGNORED

 ***WARNING: DEGREE OF FREEDOM 3 IS NOT ACTIVE ON NODE 108 INSTANCE 
             PART-1-RIGID-OUTER-1 - THIS BOUNDARY CONDITION IS IGNORED

 ***WARNING: DEGREE OF FREEDOM 1 IS NOT ACTIVE ON NODE 109 INSTANCE 
             PART-1-RIGID-OUTER-1 - THIS BOUNDARY CONDITION IS IGNORED

 ***WARNING: DEGREE OF FREEDOM 3 IS NOT ACTIVE ON NODE 109 INSTANCE 
             PART-1-RIGID-OUTER-1 - THIS BOUNDARY CONDITION IS IGNORED

 ***WARNING: DEGREE OF FREEDOM 1 IS NOT ACTIVE ON NODE 110 INSTANCE 
             PART-1-RIGID-OUTER-1 - THIS BOUNDARY CONDITION IS IGNORED

 ***WARNING: DEGREE OF FREEDOM 3 IS NOT ACTIVE ON NODE 110 INSTANCE 
             PART-1-RIGID-OUTER-1 - THIS BOUNDARY CONDITION IS IGNORED

 ***WARNING: DEGREE OF FREEDOM 1 IS NOT ACTIVE ON NODE 111 INSTANCE 
             PART-1-RIGID-OUTER-1 - THIS BOUNDARY CONDITION IS IGNORED

 ***WARNING: DEGREE OF FREEDOM 3 IS NOT ACTIVE ON NODE 111 INSTANCE 
             PART-1-RIGID-OUTER-1 - THIS BOUNDARY CONDITION IS IGNORED

 ***WARNING: DEGREE OF FREEDOM 1 IS NOT ACTIVE ON NODE 112 INSTANCE 
             PART-1-RIGID-OUTER-1 - THIS BOUNDARY CONDITION IS IGNORED

 ***WARNING: DEGREE OF FREEDOM 3 IS NOT ACTIVE ON NODE 112 INSTANCE 
             PART-1-RIGID-OUTER-1 - THIS BOUNDARY CONDITION IS IGNORED

 ***WARNING: DEGREE OF FREEDOM 1 IS NOT ACTIVE ON NODE 113 INSTANCE 
             PART-1-RIGID-OUTER-1 - THIS BOUNDARY CONDITION IS IGNORED

 ***WARNING: DEGREE OF FREEDOM 3 IS NOT ACTIVE ON NODE 113 INSTANCE 
             PART-1-RIGID-OUTER-1 - THIS BOUNDARY CONDITION IS IGNORED

 ***WARNING: DEGREE OF FREEDOM 1 IS NOT ACTIVE ON NODE 114 INSTANCE 
             PART-1-RIGID-OUTER-1 - THIS BOUNDARY CONDITION IS IGNORED

 ***WARNING: DEGREE OF FREEDOM 3 IS NOT ACTIVE ON NODE 114 INSTANCE 
             PART-1-RIGID-OUTER-1 - THIS BOUNDARY CONDITION IS IGNORED

 ***WARNING: DEGREE OF FREEDOM 1 IS NOT ACTIVE ON NODE 115 INSTANCE 
             PART-1-RIGID-OUTER-1 - THIS BOUNDARY CONDITION IS IGNORED

 ***WARNING: DEGREE OF FREEDOM 3 IS NOT ACTIVE ON NODE 115 INSTANCE 
             PART-1-RIGID-OUTER-1 - THIS BOUNDARY CONDITION IS IGNORED

 ***WARNING: DEGREE OF FREEDOM 1 IS NOT ACTIVE ON NODE 116 INSTANCE 
             PART-1-RIGID-OUTER-1 - THIS BOUNDARY CONDITION IS IGNORED

 ***WARNING: DEGREE OF FREEDOM 3 IS NOT ACTIVE ON NODE 116 INSTANCE 
             PART-1-RIGID-OUTER-1 - THIS BOUNDARY CONDITION IS IGNORED

 ***WARNING: DEGREE OF FREEDOM 1 IS NOT ACTIVE ON NODE 117 INSTANCE 
             PART-1-RIGID-OUTER-1 - THIS BOUNDARY CONDITION IS IGNORED

 ***WARNING: DEGREE OF FREEDOM 3 IS NOT ACTIVE ON NODE 117 INSTANCE 
             PART-1-RIGID-OUTER-1 - THIS BOUNDARY CONDITION IS IGNORED

 ***WARNING: DEGREE OF FREEDOM 1 IS NOT ACTIVE ON NODE 118 INSTANCE 
             PART-1-RIGID-OUTER-1 - THIS BOUNDARY CONDITION IS IGNORED

 ***WARNING: DEGREE OF FREEDOM 3 IS NOT ACTIVE ON NODE 118 INSTANCE 
             PART-1-RIGID-OUTER-1 - THIS BOUNDARY CONDITION IS IGNORED

 ***WARNING: DEGREE OF FREEDOM 1 IS NOT ACTIVE ON NODE 119 INSTANCE 
             PART-1-RIGID-OUTER-1 - THIS BOUNDARY CONDITION IS IGNORED

 ***WARNING: DEGREE OF FREEDOM 3 IS NOT ACTIVE ON NODE 119 INSTANCE 
             PART-1-RIGID-OUTER-1 - THIS BOUNDARY CONDITION IS IGNORED

 ***WARNING: DEGREE OF FREEDOM 1 IS NOT ACTIVE ON NODE 120 INSTANCE 
             PART-1-RIGID-OUTER-1 - THIS BOUNDARY CONDITION IS IGNORED

 ***WARNING: DEGREE OF FREEDOM 3 IS NOT ACTIVE ON NODE 120 INSTANCE 
             PART-1-RIGID-OUTER-1 - THIS BOUNDARY CONDITION IS IGNORED

 ***WARNING: DEGREE OF FREEDOM 1 IS NOT ACTIVE ON NODE 121 INSTANCE 
             PART-1-RIGID-OUTER-1 - THIS BOUNDARY CONDITION IS IGNORED

 ***WARNING: DEGREE OF FREEDOM 3 IS NOT ACTIVE ON NODE 121 INSTANCE 
             PART-1-RIGID-OUTER-1 - THIS BOUNDARY CONDITION IS IGNORED

 ***WARNING: DEGREE OF FREEDOM 1 IS NOT ACTIVE ON NODE 122 INSTANCE 
             PART-1-RIGID-OUTER-1 - THIS BOUNDARY CONDITION IS IGNORED

 ***WARNING: DEGREE OF FREEDOM 3 IS NOT ACTIVE ON NODE 122 INSTANCE 
             PART-1-RIGID-OUTER-1 - THIS BOUNDARY CONDITION IS IGNORED

 ***WARNING: DEGREE OF FREEDOM 1 IS NOT ACTIVE ON NODE 123 INSTANCE 
             PART-1-RIGID-OUTER-1 - THIS BOUNDARY CONDITION IS IGNORED

 ***WARNING: DEGREE OF FREEDOM 3 IS NOT ACTIVE ON NODE 123 INSTANCE 
             PART-1-RIGID-OUTER-1 - THIS BOUNDARY CONDITION IS IGNORED

 ***WARNING: DEGREE OF FREEDOM 1 IS NOT ACTIVE ON NODE 124 INSTANCE 
             PART-1-RIGID-OUTER-1 - THIS BOUNDARY CONDITION IS IGNORED

 ***WARNING: DEGREE OF FREEDOM 3 IS NOT ACTIVE ON NODE 124 INSTANCE 
             PART-1-RIGID-OUTER-1 - THIS BOUNDARY CONDITION IS IGNORED

 ***WARNING: DEGREE OF FREEDOM 1 IS NOT ACTIVE ON NODE 125 INSTANCE 
             PART-1-RIGID-OUTER-1 - THIS BOUNDARY CONDITION IS IGNORED

 ***WARNING: DEGREE OF FREEDOM 3 IS NOT ACTIVE ON NODE 125 INSTANCE 
             PART-1-RIGID-OUTER-1 - THIS BOUNDARY CONDITION IS IGNORED

 ***WARNING: DEGREE OF FREEDOM 1 IS NOT ACTIVE ON NODE 126 INSTANCE 
             PART-1-RIGID-OUTER-1 - THIS BOUNDARY CONDITION IS IGNORED

 ***WARNING: DEGREE OF FREEDOM 3 IS NOT ACTIVE ON NODE 126 INSTANCE 
             PART-1-RIGID-OUTER-1 - THIS BOUNDARY CONDITION IS IGNORED

 ***WARNING: DEGREE OF FREEDOM 1 IS NOT ACTIVE ON NODE 127 INSTANCE 
             PART-1-RIGID-OUTER-1 - THIS BOUNDARY CONDITION IS IGNORED

 ***WARNING: DEGREE OF FREEDOM 3 IS NOT ACTIVE ON NODE 127 INSTANCE 
             PART-1-RIGID-OUTER-1 - THIS BOUNDARY CONDITION IS IGNORED

 ***WARNING: DEGREE OF FREEDOM 1 IS NOT ACTIVE ON NODE 128 INSTANCE 
             PART-1-RIGID-OUTER-1 - THIS BOUNDARY CONDITION IS IGNORED

 ***WARNING: DEGREE OF FREEDOM 3 IS NOT ACTIVE ON NODE 128 INSTANCE 
             PART-1-RIGID-OUTER-1 - THIS BOUNDARY CONDITION IS IGNORED

 ***WARNING: DEGREE OF FREEDOM 1 IS NOT ACTIVE ON NODE 129 INSTANCE 
             PART-1-RIGID-OUTER-1 - THIS BOUNDARY CONDITION IS IGNORED

 ***WARNING: DEGREE OF FREEDOM 3 IS NOT ACTIVE ON NODE 129 INSTANCE 
             PART-1-RIGID-OUTER-1 - THIS BOUNDARY CONDITION IS IGNORED

 ***WARNING: DEGREE OF FREEDOM 1 IS NOT ACTIVE ON NODE 130 INSTANCE 
             PART-1-RIGID-OUTER-1 - THIS BOUNDARY CONDITION IS IGNORED

 ***WARNING: DEGREE OF FREEDOM 3 IS NOT ACTIVE ON NODE 130 INSTANCE 
             PART-1-RIGID-OUTER-1 - THIS BOUNDARY CONDITION IS IGNORED

 ***WARNING: DEGREE OF FREEDOM 1 IS NOT ACTIVE ON NODE 131 INSTANCE 
             PART-1-RIGID-OUTER-1 - THIS BOUNDARY CONDITION IS IGNORED

 ***WARNING: DEGREE OF FREEDOM 3 IS NOT ACTIVE ON NODE 131 INSTANCE 
             PART-1-RIGID-OUTER-1 - THIS BOUNDARY CONDITION IS IGNORED

 ***WARNING: DEGREE OF FREEDOM 1 IS NOT ACTIVE ON NODE 132 INSTANCE 
             PART-1-RIGID-OUTER-1 - THIS BOUNDARY CONDITION IS IGNORED

 ***WARNING: DEGREE OF FREEDOM 3 IS NOT ACTIVE ON NODE 132 INSTANCE 
             PART-1-RIGID-OUTER-1 - THIS BOUNDARY CONDITION IS IGNORED

 ***WARNING: DEGREE OF FREEDOM 1 IS NOT ACTIVE ON NODE 133 INSTANCE 
             PART-1-RIGID-OUTER-1 - THIS BOUNDARY CONDITION IS IGNORED

 ***WARNING: DEGREE OF FREEDOM 3 IS NOT ACTIVE ON NODE 133 INSTANCE 
             PART-1-RIGID-OUTER-1 - THIS BOUNDARY CONDITION IS IGNORED

 ***WARNING: DEGREE OF FREEDOM 1 IS NOT ACTIVE ON NODE 134 INSTANCE 
             PART-1-RIGID-OUTER-1 - THIS BOUNDARY CONDITION IS IGNORED

 ***WARNING: DEGREE OF FREEDOM 3 IS NOT ACTIVE ON NODE 134 INSTANCE 
             PART-1-RIGID-OUTER-1 - THIS BOUNDARY CONDITION IS IGNORED

 ***WARNING: DEGREE OF FREEDOM 1 IS NOT ACTIVE ON NODE 135 INSTANCE 
             PART-1-RIGID-OUTER-1 - THIS BOUNDARY CONDITION IS IGNORED

 ***WARNING: DEGREE OF FREEDOM 3 IS NOT ACTIVE ON NODE 135 INSTANCE 
             PART-1-RIGID-OUTER-1 - THIS BOUNDARY CONDITION IS IGNORED

 ***WARNING: DEGREE OF FREEDOM 1 IS NOT ACTIVE ON NODE 136 INSTANCE 
             PART-1-RIGID-OUTER-1 - THIS BOUNDARY CONDITION IS IGNORED

 ***WARNING: DEGREE OF FREEDOM 3 IS NOT ACTIVE ON NODE 136 INSTANCE 
             PART-1-RIGID-OUTER-1 - THIS BOUNDARY CONDITION IS IGNORED

 ***WARNING: DEGREE OF FREEDOM 1 IS NOT ACTIVE ON NODE 137 INSTANCE 
             PART-1-RIGID-OUTER-1 - THIS BOUNDARY CONDITION IS IGNORED

 ***WARNING: DEGREE OF FREEDOM 3 IS NOT ACTIVE ON NODE 137 INSTANCE 
             PART-1-RIGID-OUTER-1 - THIS BOUNDARY CONDITION IS IGNORED

 ***WARNING: DEGREE OF FREEDOM 1 IS NOT ACTIVE ON NODE 138 INSTANCE 
             PART-1-RIGID-OUTER-1 - THIS BOUNDARY CONDITION IS IGNORED

 ***WARNING: DEGREE OF FREEDOM 3 IS NOT ACTIVE ON NODE 138 INSTANCE 
             PART-1-RIGID-OUTER-1 - THIS BOUNDARY CONDITION IS IGNORED

 ***WARNING: DEGREE OF FREEDOM 1 IS NOT ACTIVE ON NODE 139 INSTANCE 
             PART-1-RIGID-OUTER-1 - THIS BOUNDARY CONDITION IS IGNORED

 ***WARNING: DEGREE OF FREEDOM 3 IS NOT ACTIVE ON NODE 139 INSTANCE 
             PART-1-RIGID-OUTER-1 - THIS BOUNDARY CONDITION IS IGNORED

 ***WARNING: DEGREE OF FREEDOM 1 IS NOT ACTIVE ON NODE 140 INSTANCE 
             PART-1-RIGID-OUTER-1 - THIS BOUNDARY CONDITION IS IGNORED

 ***WARNING: DEGREE OF FREEDOM 3 IS NOT ACTIVE ON NODE 140 INSTANCE 
             PART-1-RIGID-OUTER-1 - THIS BOUNDARY CONDITION IS IGNORED

 ***WARNING: DEGREE OF FREEDOM 1 IS NOT ACTIVE ON NODE 141 INSTANCE 
             PART-1-RIGID-OUTER-1 - THIS BOUNDARY CONDITION IS IGNORED

 ***WARNING: DEGREE OF FREEDOM 3 IS NOT ACTIVE ON NODE 141 INSTANCE 
             PART-1-RIGID-OUTER-1 - THIS BOUNDARY CONDITION IS IGNORED

 ***WARNING: DEGREE OF FREEDOM 1 IS NOT ACTIVE ON NODE 142 INSTANCE 
             PART-1-RIGID-OUTER-1 - THIS BOUNDARY CONDITION IS IGNORED

 ***WARNING: DEGREE OF FREEDOM 3 IS NOT ACTIVE ON NODE 142 INSTANCE 
             PART-1-RIGID-OUTER-1 - THIS BOUNDARY CONDITION IS IGNORED

 ***WARNING: DEGREE OF FREEDOM 1 IS NOT ACTIVE ON NODE 143 INSTANCE 
             PART-1-RIGID-OUTER-1 - THIS BOUNDARY CONDITION IS IGNORED

 ***WARNING: DEGREE OF FREEDOM 3 IS NOT ACTIVE ON NODE 143 INSTANCE 
             PART-1-RIGID-OUTER-1 - THIS BOUNDARY CONDITION IS IGNORED

 ***WARNING: DEGREE OF FREEDOM 1 IS NOT ACTIVE ON NODE 144 INSTANCE 
             PART-1-RIGID-OUTER-1 - THIS BOUNDARY CONDITION IS IGNORED

 ***WARNING: DEGREE OF FREEDOM 3 IS NOT ACTIVE ON NODE 144 INSTANCE 
             PART-1-RIGID-OUTER-1 - THIS BOUNDARY CONDITION IS IGNORED

 ***WARNING: DEGREE OF FREEDOM 1 IS NOT ACTIVE ON NODE 145 INSTANCE 
             PART-1-RIGID-OUTER-1 - THIS BOUNDARY CONDITION IS IGNORED

 ***WARNING: DEGREE OF FREEDOM 3 IS NOT ACTIVE ON NODE 145 INSTANCE 
             PART-1-RIGID-OUTER-1 - THIS BOUNDARY CONDITION IS IGNORED

 ***WARNING: DEGREE OF FREEDOM 1 IS NOT ACTIVE ON NODE 146 INSTANCE 
             PART-1-RIGID-OUTER-1 - THIS BOUNDARY CONDITION IS IGNORED

 ***WARNING: DEGREE OF FREEDOM 3 IS NOT ACTIVE ON NODE 146 INSTANCE 
             PART-1-RIGID-OUTER-1 - THIS BOUNDARY CONDITION IS IGNORED

 ***WARNING: DEGREE OF FREEDOM 1 IS NOT ACTIVE ON NODE 147 INSTANCE 
             PART-1-RIGID-OUTER-1 - THIS BOUNDARY CONDITION IS IGNORED

 ***WARNING: DEGREE OF FREEDOM 3 IS NOT ACTIVE ON NODE 147 INSTANCE 
             PART-1-RIGID-OUTER-1 - THIS BOUNDARY CONDITION IS IGNORED

 ***WARNING: DEGREE OF FREEDOM 1 IS NOT ACTIVE ON NODE 148 INSTANCE 
             PART-1-RIGID-OUTER-1 - THIS BOUNDARY CONDITION IS IGNORED

 ***WARNING: DEGREE OF FREEDOM 3 IS NOT ACTIVE ON NODE 148 INSTANCE 
             PART-1-RIGID-OUTER-1 - THIS BOUNDARY CONDITION IS IGNORED

 ***WARNING: DEGREE OF FREEDOM 1 IS NOT ACTIVE ON NODE 149 INSTANCE 
             PART-1-RIGID-OUTER-1 - THIS BOUNDARY CONDITION IS IGNORED

 ***WARNING: DEGREE OF FREEDOM 3 IS NOT ACTIVE ON NODE 149 INSTANCE 
             PART-1-RIGID-OUTER-1 - THIS BOUNDARY CONDITION IS IGNORED

 ***WARNING: DEGREE OF FREEDOM 1 IS NOT ACTIVE ON NODE 150 INSTANCE 
             PART-1-RIGID-OUTER-1 - THIS BOUNDARY CONDITION IS IGNORED

 ***WARNING: DEGREE OF FREEDOM 3 IS NOT ACTIVE ON NODE 150 INSTANCE 
             PART-1-RIGID-OUTER-1 - THIS BOUNDARY CONDITION IS IGNORED

 ***WARNING: DEGREE OF FREEDOM 1 IS NOT ACTIVE ON NODE 151 INSTANCE 
             PART-1-RIGID-OUTER-1 - THIS BOUNDARY CONDITION IS IGNORED

 ***WARNING: DEGREE OF FREEDOM 3 IS NOT ACTIVE ON NODE 151 INSTANCE 
             PART-1-RIGID-OUTER-1 - THIS BOUNDARY CONDITION IS IGNORED

 ***WARNING: DEGREE OF FREEDOM 1 IS NOT ACTIVE ON NODE 152 INSTANCE 
             PART-1-RIGID-OUTER-1 - THIS BOUNDARY CONDITION IS IGNORED

 ***WARNING: DEGREE OF FREEDOM 3 IS NOT ACTIVE ON NODE 152 INSTANCE 
             PART-1-RIGID-OUTER-1 - THIS BOUNDARY CONDITION IS IGNORED

 ***WARNING: DEGREE OF FREEDOM 1 IS NOT ACTIVE ON NODE 153 INSTANCE 
             PART-1-RIGID-OUTER-1 - THIS BOUNDARY CONDITION IS IGNORED

 ***WARNING: DEGREE OF FREEDOM 3 IS NOT ACTIVE ON NODE 153 INSTANCE 
             PART-1-RIGID-OUTER-1 - THIS BOUNDARY CONDITION IS IGNORED

 ***WARNING: DEGREE OF FREEDOM 1 IS NOT ACTIVE ON NODE 154 INSTANCE 
             PART-1-RIGID-OUTER-1 - THIS BOUNDARY CONDITION IS IGNORED

 ***WARNING: DEGREE OF FREEDOM 3 IS NOT ACTIVE ON NODE 154 INSTANCE 
             PART-1-RIGID-OUTER-1 - THIS BOUNDARY CONDITION IS IGNORED

 ***WARNING: DEGREE OF FREEDOM 1 IS NOT ACTIVE ON NODE 155 INSTANCE 
             PART-1-RIGID-OUTER-1 - THIS BOUNDARY CONDITION IS IGNORED

 ***WARNING: DEGREE OF FREEDOM 3 IS NOT ACTIVE ON NODE 155 INSTANCE 
             PART-1-RIGID-OUTER-1 - THIS BOUNDARY CONDITION IS IGNORED

 ***WARNING: DEGREE OF FREEDOM 1 IS NOT ACTIVE ON NODE 156 INSTANCE 
             PART-1-RIGID-OUTER-1 - THIS BOUNDARY CONDITION IS IGNORED

 ***WARNING: DEGREE OF FREEDOM 3 IS NOT ACTIVE ON NODE 156 INSTANCE 
             PART-1-RIGID-OUTER-1 - THIS BOUNDARY CONDITION IS IGNORED

 ***WARNING: DEGREE OF FREEDOM 1 IS NOT ACTIVE ON NODE 157 INSTANCE 
             PART-1-RIGID-OUTER-1 - THIS BOUNDARY CONDITION IS IGNORED

 ***WARNING: DEGREE OF FREEDOM 3 IS NOT ACTIVE ON NODE 157 INSTANCE 
             PART-1-RIGID-OUTER-1 - THIS BOUNDARY CONDITION IS IGNORED

 ***WARNING: DEGREE OF FREEDOM 1 IS NOT ACTIVE ON NODE 158 INSTANCE 
             PART-1-RIGID-OUTER-1 - THIS BOUNDARY CONDITION IS IGNORED

 ***WARNING: DEGREE OF FREEDOM 3 IS NOT ACTIVE ON NODE 158 INSTANCE 
             PART-1-RIGID-OUTER-1 - THIS BOUNDARY CONDITION IS IGNORED

 ***WARNING: DEGREE OF FREEDOM 1 IS NOT ACTIVE ON NODE 159 INSTANCE 
             PART-1-RIGID-OUTER-1 - THIS BOUNDARY CONDITION IS IGNORED

 ***WARNING: DEGREE OF FREEDOM 3 IS NOT ACTIVE ON NODE 159 INSTANCE 
             PART-1-RIGID-OUTER-1 - THIS BOUNDARY CONDITION IS IGNORED

 ***WARNING: DEGREE OF FREEDOM 1 IS NOT ACTIVE ON NODE 160 INSTANCE 
             PART-1-RIGID-OUTER-1 - THIS BOUNDARY CONDITION IS IGNORED

 ***WARNING: DEGREE OF FREEDOM 3 IS NOT ACTIVE ON NODE 160 INSTANCE 
             PART-1-RIGID-OUTER-1 - THIS BOUNDARY CONDITION IS IGNORED

 ***WARNING: DEGREE OF FREEDOM 1 IS NOT ACTIVE ON NODE 161 INSTANCE 
             PART-1-RIGID-OUTER-1 - THIS BOUNDARY CONDITION IS IGNORED

 ***WARNING: DEGREE OF FREEDOM 3 IS NOT ACTIVE ON NODE 161 INSTANCE 
             PART-1-RIGID-OUTER-1 - THIS BOUNDARY CONDITION IS IGNORED

 ***WARNING: DEGREE OF FREEDOM 1 IS NOT ACTIVE ON NODE 162 INSTANCE 
             PART-1-RIGID-OUTER-1 - THIS BOUNDARY CONDITION IS IGNORED

 ***WARNING: DEGREE OF FREEDOM 3 IS NOT ACTIVE ON NODE 162 INSTANCE 
             PART-1-RIGID-OUTER-1 - THIS BOUNDARY CONDITION IS IGNORED

 ***WARNING: DEGREE OF FREEDOM 1 IS NOT ACTIVE ON NODE 163 INSTANCE 
             PART-1-RIGID-OUTER-1 - THIS BOUNDARY CONDITION IS IGNORED

 ***WARNING: DEGREE OF FREEDOM 3 IS NOT ACTIVE ON NODE 163 INSTANCE 
             PART-1-RIGID-OUTER-1 - THIS BOUNDARY CONDITION IS IGNORED

 ***WARNING: DEGREE OF FREEDOM 1 IS NOT ACTIVE ON NODE 164 INSTANCE 
             PART-1-RIGID-OUTER-1 - THIS BOUNDARY CONDITION IS IGNORED

 ***WARNING: DEGREE OF FREEDOM 3 IS NOT ACTIVE ON NODE 164 INSTANCE 
             PART-1-RIGID-OUTER-1 - THIS BOUNDARY CONDITION IS IGNORED

 ***WARNING: DEGREE OF FREEDOM 1 IS NOT ACTIVE ON NODE 165 INSTANCE 
             PART-1-RIGID-OUTER-1 - THIS BOUNDARY CONDITION IS IGNORED

 ***WARNING: DEGREE OF FREEDOM 3 IS NOT ACTIVE ON NODE 165 INSTANCE 
             PART-1-RIGID-OUTER-1 - THIS BOUNDARY CONDITION IS IGNORED

 ***WARNING: DEGREE OF FREEDOM 1 IS NOT ACTIVE ON NODE 166 INSTANCE 
             PART-1-RIGID-OUTER-1 - THIS BOUNDARY CONDITION IS IGNORED

 ***WARNING: DEGREE OF FREEDOM 3 IS NOT ACTIVE ON NODE 166 INSTANCE 
             PART-1-RIGID-OUTER-1 - THIS BOUNDARY CONDITION IS IGNORED

 ***WARNING: DEGREE OF FREEDOM 1 IS NOT ACTIVE ON NODE 167 INSTANCE 
             PART-1-RIGID-OUTER-1 - THIS BOUNDARY CONDITION IS IGNORED

 ***WARNING: DEGREE OF FREEDOM 3 IS NOT ACTIVE ON NODE 167 INSTANCE 
             PART-1-RIGID-OUTER-1 - THIS BOUNDARY CONDITION IS IGNORED

 ***WARNING: DEGREE OF FREEDOM 1 IS NOT ACTIVE ON NODE 168 INSTANCE 
             PART-1-RIGID-OUTER-1 - THIS BOUNDARY CONDITION IS IGNORED

 ***WARNING: DEGREE OF FREEDOM 3 IS NOT ACTIVE ON NODE 168 INSTANCE 
             PART-1-RIGID-OUTER-1 - THIS BOUNDARY CONDITION IS IGNORED

 ***WARNING: DEGREE OF FREEDOM 1 IS NOT ACTIVE ON NODE 169 INSTANCE 
             PART-1-RIGID-OUTER-1 - THIS BOUNDARY CONDITION IS IGNORED

 ***WARNING: DEGREE OF FREEDOM 3 IS NOT ACTIVE ON NODE 169 INSTANCE 
             PART-1-RIGID-OUTER-1 - THIS BOUNDARY CONDITION IS IGNORED

 ***WARNING: DEGREE OF FREEDOM 1 IS NOT ACTIVE ON NODE 170 INSTANCE 
             PART-1-RIGID-OUTER-1 - THIS BOUNDARY CONDITION IS IGNORED

 ***WARNING: DEGREE OF FREEDOM 3 IS NOT ACTIVE ON NODE 170 INSTANCE 
             PART-1-RIGID-OUTER-1 - THIS BOUNDARY CONDITION IS IGNORED

 ***WARNING: DEGREE OF FREEDOM 1 IS NOT ACTIVE ON NODE 171 INSTANCE 
             PART-1-RIGID-OUTER-1 - THIS BOUNDARY CONDITION IS IGNORED

 ***WARNING: DEGREE OF FREEDOM 3 IS NOT ACTIVE ON NODE 171 INSTANCE 
             PART-1-RIGID-OUTER-1 - THIS BOUNDARY CONDITION IS IGNORED

 ***WARNING: DEGREE OF FREEDOM 1 IS NOT ACTIVE ON NODE 172 INSTANCE 
             PART-1-RIGID-OUTER-1 - THIS BOUNDARY CONDITION IS IGNORED

 ***WARNING: DEGREE OF FREEDOM 3 IS NOT ACTIVE ON NODE 172 INSTANCE 
             PART-1-RIGID-OUTER-1 - THIS BOUNDARY CONDITION IS IGNORED

 ***WARNING: DEGREE OF FREEDOM 1 IS NOT ACTIVE ON NODE 173 INSTANCE 
             PART-1-RIGID-OUTER-1 - THIS BOUNDARY CONDITION IS IGNORED

 ***WARNING: DEGREE OF FREEDOM 3 IS NOT ACTIVE ON NODE 173 INSTANCE 
             PART-1-RIGID-OUTER-1 - THIS BOUNDARY CONDITION IS IGNORED

 ***WARNING: DEGREE OF FREEDOM 1 IS NOT ACTIVE ON NODE 174 INSTANCE 
             PART-1-RIGID-OUTER-1 - THIS BOUNDARY CONDITION IS IGNORED

 ***WARNING: DEGREE OF FREEDOM 3 IS NOT ACTIVE ON NODE 174 INSTANCE 
             PART-1-RIGID-OUTER-1 - THIS BOUNDARY CONDITION IS IGNORED

 ***WARNING: DEGREE OF FREEDOM 1 IS NOT ACTIVE ON NODE 326 INSTANCE 
             PART-1-RIGID-OUTER-1 - THIS BOUNDARY CONDITION IS IGNORED

 ***WARNING: DEGREE OF FREEDOM 3 IS NOT ACTIVE ON NODE 326 INSTANCE 
             PART-1-RIGID-OUTER-1 - THIS BOUNDARY CONDITION IS IGNORED

 ***WARNING: DEGREE OF FREEDOM 1 IS NOT ACTIVE ON NODE 327 INSTANCE 
             PART-1-RIGID-OUTER-1 - THIS BOUNDARY CONDITION IS IGNORED

 ***WARNING: DEGREE OF FREEDOM 3 IS NOT ACTIVE ON NODE 327 INSTANCE 
             PART-1-RIGID-OUTER-1 - THIS BOUNDARY CONDITION IS IGNORED

 ***WARNING: DEGREE OF FREEDOM 1 IS NOT ACTIVE ON NODE 328 INSTANCE 
             PART-1-RIGID-OUTER-1 - THIS BOUNDARY CONDITION IS IGNORED

 ***WARNING: DEGREE OF FREEDOM 3 IS NOT ACTIVE ON NODE 328 INSTANCE 
             PART-1-RIGID-OUTER-1 - THIS BOUNDARY CONDITION IS IGNORED

 ***WARNING: DEGREE OF FREEDOM 1 IS NOT ACTIVE ON NODE 329 INSTANCE 
             PART-1-RIGID-OUTER-1 - THIS BOUNDARY CONDITION IS IGNORED

 ***WARNING: DEGREE OF FREEDOM 3 IS NOT ACTIVE ON NODE 329 INSTANCE 
             PART-1-RIGID-OUTER-1 - THIS BOUNDARY CONDITION IS IGNORED

 ***WARNING: DEGREE OF FREEDOM 1 IS NOT ACTIVE ON NODE 330 INSTANCE 
             PART-1-RIGID-OUTER-1 - THIS BOUNDARY CONDITION IS IGNORED

 ***WARNING: DEGREE OF FREEDOM 3 IS NOT ACTIVE ON NODE 330 INSTANCE 
             PART-1-RIGID-OUTER-1 - THIS BOUNDARY CONDITION IS IGNORED

 ***WARNING: DEGREE OF FREEDOM 1 IS NOT ACTIVE ON NODE 331 INSTANCE 
             PART-1-RIGID-OUTER-1 - THIS BOUNDARY CONDITION IS IGNORED

 ***WARNING: DEGREE OF FREEDOM 3 IS NOT ACTIVE ON NODE 331 INSTANCE 
             PART-1-RIGID-OUTER-1 - THIS BOUNDARY CONDITION IS IGNORED

 ***WARNING: DEGREE OF FREEDOM 1 IS NOT ACTIVE ON NODE 332 INSTANCE 
             PART-1-RIGID-OUTER-1 - THIS BOUNDARY CONDITION IS IGNORED

 ***WARNING: DEGREE OF FREEDOM 3 IS NOT ACTIVE ON NODE 332 INSTANCE 
             PART-1-RIGID-OUTER-1 - THIS BOUNDARY CONDITION IS IGNORED

 ***WARNING: DEGREE OF FREEDOM 1 IS NOT ACTIVE ON NODE 333 INSTANCE 
             PART-1-RIGID-OUTER-1 - THIS BOUNDARY CONDITION IS IGNORED

 ***WARNING: DEGREE OF FREEDOM 3 IS NOT ACTIVE ON NODE 333 INSTANCE 
             PART-1-RIGID-OUTER-1 - THIS BOUNDARY CONDITION IS IGNORED

 ***WARNING: DEGREE OF FREEDOM 1 IS NOT ACTIVE ON NODE 334 INSTANCE 
             PART-1-RIGID-OUTER-1 - THIS BOUNDARY CONDITION IS IGNORED

 ***WARNING: DEGREE OF FREEDOM 3 IS NOT ACTIVE ON NODE 334 INSTANCE 
             PART-1-RIGID-OUTER-1 - THIS BOUNDARY CONDITION IS IGNORED

 ***WARNING: DEGREE OF FREEDOM 1 IS NOT ACTIVE ON NODE 335 INSTANCE 
             PART-1-RIGID-OUTER-1 - THIS BOUNDARY CONDITION IS IGNORED

 ***WARNING: DEGREE OF FREEDOM 3 IS NOT ACTIVE ON NODE 335 INSTANCE 
             PART-1-RIGID-OUTER-1 - THIS BOUNDARY CONDITION IS IGNORED

 ***WARNING: DEGREE OF FREEDOM 1 IS NOT ACTIVE ON NODE 336 INSTANCE 
             PART-1-RIGID-OUTER-1 - THIS BOUNDARY CONDITION IS IGNORED

 ***WARNING: DEGREE OF FREEDOM 3 IS NOT ACTIVE ON NODE 336 INSTANCE 
             PART-1-RIGID-OUTER-1 - THIS BOUNDARY CONDITION IS IGNORED

 ***WARNING: DEGREE OF FREEDOM 1 IS NOT ACTIVE ON NODE 337 INSTANCE 
             PART-1-RIGID-OUTER-1 - THIS BOUNDARY CONDITION IS IGNORED

 ***WARNING: DEGREE OF FREEDOM 3 IS NOT ACTIVE ON NODE 337 INSTANCE 
             PART-1-RIGID-OUTER-1 - THIS BOUNDARY CONDITION IS IGNORED

 ***WARNING: DEGREE OF FREEDOM 1 IS NOT ACTIVE ON NODE 338 INSTANCE 
             PART-1-RIGID-OUTER-1 - THIS BOUNDARY CONDITION IS IGNORED

 ***WARNING: DEGREE OF FREEDOM 3 IS NOT ACTIVE ON NODE 338 INSTANCE 
             PART-1-RIGID-OUTER-1 - THIS BOUNDARY CONDITION IS IGNORED

 ***WARNING: DEGREE OF FREEDOM 1 IS NOT ACTIVE ON NODE 339 INSTANCE 
             PART-1-RIGID-OUTER-1 - THIS BOUNDARY CONDITION IS IGNORED

 ***WARNING: DEGREE OF FREEDOM 3 IS NOT ACTIVE ON NODE 339 INSTANCE 
             PART-1-RIGID-OUTER-1 - THIS BOUNDARY CONDITION IS IGNORED

 ***WARNING: DEGREE OF FREEDOM 1 IS NOT ACTIVE ON NODE 340 INSTANCE 
             PART-1-RIGID-OUTER-1 - THIS BOUNDARY CONDITION IS IGNORED

 ***WARNING: DEGREE OF FREEDOM 3 IS NOT ACTIVE ON NODE 340 INSTANCE 
             PART-1-RIGID-OUTER-1 - THIS BOUNDARY CONDITION IS IGNORED

 ***WARNING: DEGREE OF FREEDOM 1 IS NOT ACTIVE ON NODE 341 INSTANCE 
             PART-1-RIGID-OUTER-1 - THIS BOUNDARY CONDITION IS IGNORED

 ***WARNING: DEGREE OF FREEDOM 3 IS NOT ACTIVE ON NODE 341 INSTANCE 
             PART-1-RIGID-OUTER-1 - THIS BOUNDARY CONDITION IS IGNORED

 ***WARNING: DEGREE OF FREEDOM 1 IS NOT ACTIVE ON NODE 342 INSTANCE 
             PART-1-RIGID-OUTER-1 - THIS BOUNDARY CONDITION IS IGNORED

 ***WARNING: DEGREE OF FREEDOM 3 IS NOT ACTIVE ON NODE 342 INSTANCE 
             PART-1-RIGID-OUTER-1 - THIS BOUNDARY CONDITION IS IGNORED

 ***WARNING: DEGREE OF FREEDOM 1 IS NOT ACTIVE ON NODE 343 INSTANCE 
             PART-1-RIGID-OUTER-1 - THIS BOUNDARY CONDITION IS IGNORED

 ***WARNING: DEGREE OF FREEDOM 3 IS NOT ACTIVE ON NODE 343 INSTANCE 
             PART-1-RIGID-OUTER-1 - THIS BOUNDARY CONDITION IS IGNORED

 ***WARNING: DEGREE OF FREEDOM 1 IS NOT ACTIVE ON NODE 344 INSTANCE 
             PART-1-RIGID-OUTER-1 - THIS BOUNDARY CONDITION IS IGNORED

 ***WARNING: DEGREE OF FREEDOM 3 IS NOT ACTIVE ON NODE 344 INSTANCE 
             PART-1-RIGID-OUTER-1 - THIS BOUNDARY CONDITION IS IGNORED

 ***WARNING: DEGREE OF FREEDOM 1 IS NOT ACTIVE ON NODE 345 INSTANCE 
             PART-1-RIGID-OUTER-1 - THIS BOUNDARY CONDITION IS IGNORED

 ***WARNING: DEGREE OF FREEDOM 3 IS NOT ACTIVE ON NODE 345 INSTANCE 
             PART-1-RIGID-OUTER-1 - THIS BOUNDARY CONDITION IS IGNORED

 ***WARNING: DEGREE OF FREEDOM 1 IS NOT ACTIVE ON NODE 346 INSTANCE 
             PART-1-RIGID-OUTER-1 - THIS BOUNDARY CONDITION IS IGNORED

 ***WARNING: DEGREE OF FREEDOM 3 IS NOT ACTIVE ON NODE 346 INSTANCE 
             PART-1-RIGID-OUTER-1 - THIS BOUNDARY CONDITION IS IGNORED

 ***WARNING: DEGREE OF FREEDOM 1 IS NOT ACTIVE ON NODE 347 INSTANCE 
             PART-1-RIGID-OUTER-1 - THIS BOUNDARY CONDITION IS IGNORED

 ***WARNING: DEGREE OF FREEDOM 3 IS NOT ACTIVE ON NODE 347 INSTANCE 
             PART-1-RIGID-OUTER-1 - THIS BOUNDARY CONDITION IS IGNORED

 ***WARNING: DEGREE OF FREEDOM 1 IS NOT ACTIVE ON NODE 348 INSTANCE 
             PART-1-RIGID-OUTER-1 - THIS BOUNDARY CONDITION IS IGNORED

 ***WARNING: DEGREE OF FREEDOM 3 IS NOT ACTIVE ON NODE 348 INSTANCE 
             PART-1-RIGID-OUTER-1 - THIS BOUNDARY CONDITION IS IGNORED

 ***WARNING: DEGREE OF FREEDOM 1 IS NOT ACTIVE ON NODE 349 INSTANCE 
             PART-1-RIGID-OUTER-1 - THIS BOUNDARY CONDITION IS IGNORED

 ***WARNING: DEGREE OF FREEDOM 3 IS NOT ACTIVE ON NODE 349 INSTANCE 
             PART-1-RIGID-OUTER-1 - THIS BOUNDARY CONDITION IS IGNORED

 ***WARNING: DEGREE OF FREEDOM 1 IS NOT ACTIVE ON NODE 350 INSTANCE 
             PART-1-RIGID-OUTER-1 - THIS BOUNDARY CONDITION IS IGNORED

 ***WARNING: DEGREE OF FREEDOM 3 IS NOT ACTIVE ON NODE 350 INSTANCE 
             PART-1-RIGID-OUTER-1 - THIS BOUNDARY CONDITION IS IGNORED

 ***WARNING: DEGREE OF FREEDOM 1 IS NOT ACTIVE ON NODE 351 INSTANCE 
             PART-1-RIGID-OUTER-1 - THIS BOUNDARY CONDITION IS IGNORED

 ***WARNING: DEGREE OF FREEDOM 3 IS NOT ACTIVE ON NODE 351 INSTANCE 
             PART-1-RIGID-OUTER-1 - THIS BOUNDARY CONDITION IS IGNORED

 ***WARNING: DEGREE OF FREEDOM 1 IS NOT ACTIVE ON NODE 352 INSTANCE 
             PART-1-RIGID-OUTER-1 - THIS BOUNDARY CONDITION IS IGNORED

 ***WARNING: DEGREE OF FREEDOM 3 IS NOT ACTIVE ON NODE 352 INSTANCE 
             PART-1-RIGID-OUTER-1 - THIS BOUNDARY CONDITION IS IGNORED

 ***WARNING: DEGREE OF FREEDOM 1 IS NOT ACTIVE ON NODE 353 INSTANCE 
             PART-1-RIGID-OUTER-1 - THIS BOUNDARY CONDITION IS IGNORED

 ***WARNING: DEGREE OF FREEDOM 3 IS NOT ACTIVE ON NODE 353 INSTANCE 
             PART-1-RIGID-OUTER-1 - THIS BOUNDARY CONDITION IS IGNORED

 ***WARNING: DEGREE OF FREEDOM 1 IS NOT ACTIVE ON NODE 354 INSTANCE 
             PART-1-RIGID-OUTER-1 - THIS BOUNDARY CONDITION IS IGNORED

 ***WARNING: DEGREE OF FREEDOM 3 IS NOT ACTIVE ON NODE 354 INSTANCE 
             PART-1-RIGID-OUTER-1 - THIS BOUNDARY CONDITION IS IGNORED

 ***WARNING: DEGREE OF FREEDOM 1 IS NOT ACTIVE ON NODE 355 INSTANCE 
             PART-1-RIGID-OUTER-1 - THIS BOUNDARY CONDITION IS IGNORED

 ***WARNING: DEGREE OF FREEDOM 3 IS NOT ACTIVE ON NODE 355 INSTANCE 
             PART-1-RIGID-OUTER-1 - THIS BOUNDARY CONDITION IS IGNORED

 ***WARNING: DEGREE OF FREEDOM 1 IS NOT ACTIVE ON NODE 356 INSTANCE 
             PART-1-RIGID-OUTER-1 - THIS BOUNDARY CONDITION IS IGNORED

 ***WARNING: DEGREE OF FREEDOM 3 IS NOT ACTIVE ON NODE 356 INSTANCE 
             PART-1-RIGID-OUTER-1 - THIS BOUNDARY CONDITION IS IGNORED

 ***WARNING: DEGREE OF FREEDOM 1 IS NOT ACTIVE ON NODE 357 INSTANCE 
             PART-1-RIGID-OUTER-1 - THIS BOUNDARY CONDITION IS IGNORED

 ***WARNING: DEGREE OF FREEDOM 3 IS NOT ACTIVE ON NODE 357 INSTANCE 
             PART-1-RIGID-OUTER-1 - THIS BOUNDARY CONDITION IS IGNORED

 ***WARNING: DEGREE OF FREEDOM 1 IS NOT ACTIVE ON NODE 358 INSTANCE 
             PART-1-RIGID-OUTER-1 - THIS BOUNDARY CONDITION IS IGNORED

 ***WARNING: DEGREE OF FREEDOM 3 IS NOT ACTIVE ON NODE 358 INSTANCE 
             PART-1-RIGID-OUTER-1 - THIS BOUNDARY CONDITION IS IGNORED

 ***WARNING: DEGREE OF FREEDOM 1 IS NOT ACTIVE ON NODE 359 INSTANCE 
             PART-1-RIGID-OUTER-1 - THIS BOUNDARY CONDITION IS IGNORED

 ***WARNING: DEGREE OF FREEDOM 3 IS NOT ACTIVE ON NODE 359 INSTANCE 
             PART-1-RIGID-OUTER-1 - THIS BOUNDARY CONDITION IS IGNORED

 ***WARNING: DEGREE OF FREEDOM 1 IS NOT ACTIVE ON NODE 360 INSTANCE 
             PART-1-RIGID-OUTER-1 - THIS BOUNDARY CONDITION IS IGNORED

 ***WARNING: DEGREE OF FREEDOM 3 IS NOT ACTIVE ON NODE 360 INSTANCE 
             PART-1-RIGID-OUTER-1 - THIS BOUNDARY CONDITION IS IGNORED

 ***WARNING: DEGREE OF FREEDOM 1 IS NOT ACTIVE ON NODE 361 INSTANCE 
             PART-1-RIGID-OUTER-1 - THIS BOUNDARY CONDITION IS IGNORED

 ***WARNING: DEGREE OF FREEDOM 3 IS NOT ACTIVE ON NODE 361 INSTANCE 
             PART-1-RIGID-OUTER-1 - THIS BOUNDARY CONDITION IS IGNORED

 ***WARNING: DEGREE OF FREEDOM 1 IS NOT ACTIVE ON NODE 362 INSTANCE 
             PART-1-RIGID-OUTER-1 - THIS BOUNDARY CONDITION IS IGNORED

 ***WARNING: DEGREE OF FREEDOM 3 IS NOT ACTIVE ON NODE 362 INSTANCE 
             PART-1-RIGID-OUTER-1 - THIS BOUNDARY CONDITION IS IGNORED

 ***WARNING: DEGREE OF FREEDOM 1 IS NOT ACTIVE ON NODE 363 INSTANCE 
             PART-1-RIGID-OUTER-1 - THIS BOUNDARY CONDITION IS IGNORED

 ***WARNING: DEGREE OF FREEDOM 3 IS NOT ACTIVE ON NODE 363 INSTANCE 
             PART-1-RIGID-OUTER-1 - THIS BOUNDARY CONDITION IS IGNORED

 ***WARNING: DEGREE OF FREEDOM 1 IS NOT ACTIVE ON NODE 364 INSTANCE 
             PART-1-RIGID-OUTER-1 - THIS BOUNDARY CONDITION IS IGNORED

 ***WARNING: DEGREE OF FREEDOM 3 IS NOT ACTIVE ON NODE 364 INSTANCE 
             PART-1-RIGID-OUTER-1 - THIS BOUNDARY CONDITION IS IGNORED

 ***WARNING: DEGREE OF FREEDOM 1 IS NOT ACTIVE ON NODE 365 INSTANCE 
             PART-1-RIGID-OUTER-1 - THIS BOUNDARY CONDITION IS IGNORED

 ***WARNING: DEGREE OF FREEDOM 3 IS NOT ACTIVE ON NODE 365 INSTANCE 
             PART-1-RIGID-OUTER-1 - THIS BOUNDARY CONDITION IS IGNORED

 ***WARNING: DEGREE OF FREEDOM 1 IS NOT ACTIVE ON NODE 366 INSTANCE 
             PART-1-RIGID-OUTER-1 - THIS BOUNDARY CONDITION IS IGNORED

 ***WARNING: DEGREE OF FREEDOM 3 IS NOT ACTIVE ON NODE 366 INSTANCE 
             PART-1-RIGID-OUTER-1 - THIS BOUNDARY CONDITION IS IGNORED

 ***WARNING: DEGREE OF FREEDOM 1 IS NOT ACTIVE ON NODE 367 INSTANCE 
             PART-1-RIGID-OUTER-1 - THIS BOUNDARY CONDITION IS IGNORED

 ***WARNING: DEGREE OF FREEDOM 3 IS NOT ACTIVE ON NODE 367 INSTANCE 
             PART-1-RIGID-OUTER-1 - THIS BOUNDARY CONDITION IS IGNORED

 ***WARNING: DEGREE OF FREEDOM 1 IS NOT ACTIVE ON NODE 368 INSTANCE 
             PART-1-RIGID-OUTER-1 - THIS BOUNDARY CONDITION IS IGNORED

 ***WARNING: DEGREE OF FREEDOM 3 IS NOT ACTIVE ON NODE 368 INSTANCE 
             PART-1-RIGID-OUTER-1 - THIS BOUNDARY CONDITION IS IGNORED

 ***WARNING: DEGREE OF FREEDOM 1 IS NOT ACTIVE ON NODE 369 INSTANCE 
             PART-1-RIGID-OUTER-1 - THIS BOUNDARY CONDITION IS IGNORED

 ***WARNING: DEGREE OF FREEDOM 3 IS NOT ACTIVE ON NODE 369 INSTANCE 
             PART-1-RIGID-OUTER-1 - THIS BOUNDARY CONDITION IS IGNORED

 ***WARNING: DEGREE OF FREEDOM 1 IS NOT ACTIVE ON NODE 370 INSTANCE 
             PART-1-RIGID-OUTER-1 - THIS BOUNDARY CONDITION IS IGNORED

 ***WARNING: DEGREE OF FREEDOM 3 IS NOT ACTIVE ON NODE 370 INSTANCE 
             PART-1-RIGID-OUTER-1 - THIS BOUNDARY CONDITION IS IGNORED

 ***WARNING: DEGREE OF FREEDOM 1 IS NOT ACTIVE ON NODE 371 INSTANCE 
             PART-1-RIGID-OUTER-1 - THIS BOUNDARY CONDITION IS IGNORED

 ***WARNING: DEGREE OF FREEDOM 3 IS NOT ACTIVE ON NODE 371 INSTANCE 
             PART-1-RIGID-OUTER-1 - THIS BOUNDARY CONDITION IS IGNORED

 ***WARNING: DEGREE OF FREEDOM 1 IS NOT ACTIVE ON NODE 372 INSTANCE 
             PART-1-RIGID-OUTER-1 - THIS BOUNDARY CONDITION IS IGNORED

 ***WARNING: DEGREE OF FREEDOM 3 IS NOT ACTIVE ON NODE 372 INSTANCE 
             PART-1-RIGID-OUTER-1 - THIS BOUNDARY CONDITION IS IGNORED

 ***WARNING: DEGREE OF FREEDOM 1 IS NOT ACTIVE ON NODE 373 INSTANCE 
             PART-1-RIGID-OUTER-1 - THIS BOUNDARY CONDITION IS IGNORED

 ***WARNING: DEGREE OF FREEDOM 3 IS NOT ACTIVE ON NODE 373 INSTANCE 
             PART-1-RIGID-OUTER-1 - THIS BOUNDARY CONDITION IS IGNORED

 ***WARNING: DEGREE OF FREEDOM 1 IS NOT ACTIVE ON NODE 374 INSTANCE 
             PART-1-RIGID-OUTER-1 - THIS BOUNDARY CONDITION IS IGNORED

 ***WARNING: DEGREE OF FREEDOM 3 IS NOT ACTIVE ON NODE 374 INSTANCE 
             PART-1-RIGID-OUTER-1 - THIS BOUNDARY CONDITION IS IGNORED

 ***WARNING: DEGREE OF FREEDOM 1 IS NOT ACTIVE ON NODE 375 INSTANCE 
             PART-1-RIGID-OUTER-1 - THIS BOUNDARY CONDITION IS IGNORED

 ***WARNING: DEGREE OF FREEDOM 3 IS NOT ACTIVE ON NODE 375 INSTANCE 
             PART-1-RIGID-OUTER-1 - THIS BOUNDARY CONDITION IS IGNORED

 ***WARNING: DEGREE OF FREEDOM 1 IS NOT ACTIVE ON NODE 376 INSTANCE 
             PART-1-RIGID-OUTER-1 - THIS BOUNDARY CONDITION IS IGNORED

 ***WARNING: DEGREE OF FREEDOM 3 IS NOT ACTIVE ON NODE 376 INSTANCE 
             PART-1-RIGID-OUTER-1 - THIS BOUNDARY CONDITION IS IGNORED

 ***WARNING: DEGREE OF FREEDOM 1 IS NOT ACTIVE ON NODE 377 INSTANCE 
             PART-1-RIGID-OUTER-1 - THIS BOUNDARY CONDITION IS IGNORED

 ***WARNING: DEGREE OF FREEDOM 3 IS NOT ACTIVE ON NODE 377 INSTANCE 
             PART-1-RIGID-OUTER-1 - THIS BOUNDARY CONDITION IS IGNORED

 ***WARNING: DEGREE OF FREEDOM 1 IS NOT ACTIVE ON NODE 378 INSTANCE 
             PART-1-RIGID-OUTER-1 - THIS BOUNDARY CONDITION IS IGNORED

 ***WARNING: DEGREE OF FREEDOM 3 IS NOT ACTIVE ON NODE 378 INSTANCE 
             PART-1-RIGID-OUTER-1 - THIS BOUNDARY CONDITION IS IGNORED

 ***WARNING: DEGREE OF FREEDOM 1 IS NOT ACTIVE ON NODE 379 INSTANCE 
             PART-1-RIGID-OUTER-1 - THIS BOUNDARY CONDITION IS IGNORED

 ***WARNING: DEGREE OF FREEDOM 3 IS NOT ACTIVE ON NODE 379 INSTANCE 
             PART-1-RIGID-OUTER-1 - THIS BOUNDARY CONDITION IS IGNORED

 ***WARNING: DEGREE OF FREEDOM 1 IS NOT ACTIVE ON NODE 380 INSTANCE 
             PART-1-RIGID-OUTER-1 - THIS BOUNDARY CONDITION IS IGNORED

 ***WARNING: DEGREE OF FREEDOM 3 IS NOT ACTIVE ON NODE 380 INSTANCE 
             PART-1-RIGID-OUTER-1 - THIS BOUNDARY CONDITION IS IGNORED

 ***WARNING: DEGREE OF FREEDOM 1 IS NOT ACTIVE ON NODE 381 INSTANCE 
             PART-1-RIGID-OUTER-1 - THIS BOUNDARY CONDITION IS IGNORED

 ***WARNING: DEGREE OF FREEDOM 3 IS NOT ACTIVE ON NODE 381 INSTANCE 
             PART-1-RIGID-OUTER-1 - THIS BOUNDARY CONDITION IS IGNORED

 ***WARNING: DEGREE OF FREEDOM 1 IS NOT ACTIVE ON NODE 382 INSTANCE 
             PART-1-RIGID-OUTER-1 - THIS BOUNDARY CONDITION IS IGNORED

[...]
             APPLIED AT THIS NODE

 ***WARNING: DEGREE OF FREEDOM 1 HAS BEEN ELIMINATED AT NODE 117 INSTANCE 
             PART-1-RIGID-INNER-1 BOUNDARY CONDITION TYPE ENCASTRE MAY NOT BE 
             APPLIED AT THIS NODE

 ***WARNING: DEGREE OF FREEDOM 2 HAS BEEN ELIMINATED AT NODE 117 INSTANCE 
             PART-1-RIGID-INNER-1 BOUNDARY CONDITION TYPE ENCASTRE MAY NOT BE 
             APPLIED AT THIS NODE

 ***WARNING: DEGREE OF FREEDOM 3 HAS BEEN ELIMINATED AT NODE 117 INSTANCE 
             PART-1-RIGID-INNER-1 BOUNDARY CONDITION TYPE ENCASTRE MAY NOT BE 
             APPLIED AT THIS NODE

 ***WARNING: DEGREE OF FREEDOM 1 HAS BEEN ELIMINATED AT NODE 118 INSTANCE 
             PART-1-RIGID-INNER-1 BOUNDARY CONDITION TYPE ENCASTRE MAY NOT BE 
             APPLIED AT THIS NODE

 ***WARNING: DEGREE OF FREEDOM 2 HAS BEEN ELIMINATED AT NODE 118 INSTANCE 
             PART-1-RIGID-INNER-1 BOUNDARY CONDITION TYPE ENCASTRE MAY NOT BE 
             APPLIED AT THIS NODE

 ***WARNING: DEGREE OF FREEDOM 3 HAS BEEN ELIMINATED AT NODE 118 INSTANCE 
             PART-1-RIGID-INNER-1 BOUNDARY CONDITION TYPE ENCASTRE MAY NOT BE 
             APPLIED AT THIS NODE

 ***WARNING: DEGREE OF FREEDOM 1 HAS BEEN ELIMINATED AT NODE 119 INSTANCE 
             PART-1-RIGID-INNER-1 BOUNDARY CONDITION TYPE ENCASTRE MAY NOT BE 
             APPLIED AT THIS NODE

 ***WARNING: DEGREE OF FREEDOM 2 HAS BEEN ELIMINATED AT NODE 119 INSTANCE 
             PART-1-RIGID-INNER-1 BOUNDARY CONDITION TYPE ENCASTRE MAY NOT BE 
             APPLIED AT THIS NODE

 ***WARNING: DEGREE OF FREEDOM 3 HAS BEEN ELIMINATED AT NODE 119 INSTANCE 
             PART-1-RIGID-INNER-1 BOUNDARY CONDITION TYPE ENCASTRE MAY NOT BE 
             APPLIED AT THIS NODE

 ***WARNING: DEGREE OF FREEDOM 1 HAS BEEN ELIMINATED AT NODE 120 INSTANCE 
             PART-1-RIGID-INNER-1 BOUNDARY CONDITION TYPE ENCASTRE MAY NOT BE 
             APPLIED AT THIS NODE

 ***WARNING: DEGREE OF FREEDOM 2 HAS BEEN ELIMINATED AT NODE 120 INSTANCE 
             PART-1-RIGID-INNER-1 BOUNDARY CONDITION TYPE ENCASTRE MAY NOT BE 
             APPLIED AT THIS NODE

 ***WARNING: DEGREE OF FREEDOM 3 HAS BEEN ELIMINATED AT NODE 120 INSTANCE 
             PART-1-RIGID-INNER-1 BOUNDARY CONDITION TYPE ENCASTRE MAY NOT BE 
             APPLIED AT THIS NODE

 ***WARNING: DEGREE OF FREEDOM 1 HAS BEEN ELIMINATED AT NODE 121 INSTANCE 
             PART-1-RIGID-INNER-1 BOUNDARY CONDITION TYPE ENCASTRE MAY NOT BE 
             APPLIED AT THIS NODE

 ***WARNING: DEGREE OF FREEDOM 2 HAS BEEN ELIMINATED AT NODE 121 INSTANCE 
             PART-1-RIGID-INNER-1 BOUNDARY CONDITION TYPE ENCASTRE MAY NOT BE 
             APPLIED AT THIS NODE

 ***WARNING: DEGREE OF FREEDOM 3 HAS BEEN ELIMINATED AT NODE 121 INSTANCE 
             PART-1-RIGID-INNER-1 BOUNDARY CONDITION TYPE ENCASTRE MAY NOT BE 
             APPLIED AT THIS NODE

 ***WARNING: DEGREE OF FREEDOM 1 HAS BEEN ELIMINATED AT NODE 122 INSTANCE 
             PART-1-RIGID-INNER-1 BOUNDARY CONDITION TYPE ENCASTRE MAY NOT BE 
             APPLIED AT THIS NODE

 ***WARNING: DEGREE OF FREEDOM 2 HAS BEEN ELIMINATED AT NODE 122 INSTANCE 
             PART-1-RIGID-INNER-1 BOUNDARY CONDITION TYPE ENCASTRE MAY NOT BE 
             APPLIED AT THIS NODE

 ***WARNING: DEGREE OF FREEDOM 3 HAS BEEN ELIMINATED AT NODE 122 INSTANCE 
             PART-1-RIGID-INNER-1 BOUNDARY CONDITION TYPE ENCASTRE MAY NOT BE 
             APPLIED AT THIS NODE

 ***WARNING: DEGREE OF FREEDOM 1 HAS BEEN ELIMINATED AT NODE 123 INSTANCE 
             PART-1-RIGID-INNER-1 BOUNDARY CONDITION TYPE ENCASTRE MAY NOT BE 
             APPLIED AT THIS NODE

 ***WARNING: DEGREE OF FREEDOM 2 HAS BEEN ELIMINATED AT NODE 123 INSTANCE 
             PART-1-RIGID-INNER-1 BOUNDARY CONDITION TYPE ENCASTRE MAY NOT BE 
             APPLIED AT THIS NODE

 ***WARNING: DEGREE OF FREEDOM 3 HAS BEEN ELIMINATED AT NODE 123 INSTANCE 
             PART-1-RIGID-INNER-1 BOUNDARY CONDITION TYPE ENCASTRE MAY NOT BE 
             APPLIED AT THIS NODE

 ***WARNING: DEGREE OF FREEDOM 1 HAS BEEN ELIMINATED AT NODE 124 INSTANCE 
             PART-1-RIGID-INNER-1 BOUNDARY CONDITION TYPE ENCASTRE MAY NOT BE 
             APPLIED AT THIS NODE

 ***WARNING: DEGREE OF FREEDOM 2 HAS BEEN ELIMINATED AT NODE 124 INSTANCE 
             PART-1-RIGID-INNER-1 BOUNDARY CONDITION TYPE ENCASTRE MAY NOT BE 
             APPLIED AT THIS NODE

 ***WARNING: DEGREE OF FREEDOM 3 HAS BEEN ELIMINATED AT NODE 124 INSTANCE 
             PART-1-RIGID-INNER-1 BOUNDARY CONDITION TYPE ENCASTRE MAY NOT BE 
             APPLIED AT THIS NODE

 ***WARNING: DEGREE OF FREEDOM 1 HAS BEEN ELIMINATED AT NODE 125 INSTANCE 
             PART-1-RIGID-INNER-1 BOUNDARY CONDITION TYPE ENCASTRE MAY NOT BE 
             APPLIED AT THIS NODE

 ***WARNING: DEGREE OF FREEDOM 2 HAS BEEN ELIMINATED AT NODE 125 INSTANCE 
             PART-1-RIGID-INNER-1 BOUNDARY CONDITION TYPE ENCASTRE MAY NOT BE 
             APPLIED AT THIS NODE

 ***WARNING: DEGREE OF FREEDOM 3 HAS BEEN ELIMINATED AT NODE 125 INSTANCE 
             PART-1-RIGID-INNER-1 BOUNDARY CONDITION TYPE ENCASTRE MAY NOT BE 
             APPLIED AT THIS NODE

 ***WARNING: DEGREE OF FREEDOM 1 HAS BEEN ELIMINATED AT NODE 126 INSTANCE 
             PART-1-RIGID-INNER-1 BOUNDARY CONDITION TYPE ENCASTRE MAY NOT BE 
             APPLIED AT THIS NODE

 ***WARNING: DEGREE OF FREEDOM 2 HAS BEEN ELIMINATED AT NODE 126 INSTANCE 
             PART-1-RIGID-INNER-1 BOUNDARY CONDITION TYPE ENCASTRE MAY NOT BE 
             APPLIED AT THIS NODE

 ***WARNING: DEGREE OF FREEDOM 3 HAS BEEN ELIMINATED AT NODE 126 INSTANCE 
             PART-1-RIGID-INNER-1 BOUNDARY CONDITION TYPE ENCASTRE MAY NOT BE 
             APPLIED AT THIS NODE

 ***WARNING: DEGREE OF FREEDOM 1 HAS BEEN ELIMINATED AT NODE 127 INSTANCE 
             PART-1-RIGID-INNER-1 BOUNDARY CONDITION TYPE ENCASTRE MAY NOT BE 
             APPLIED AT THIS NODE

 ***WARNING: DEGREE OF FREEDOM 2 HAS BEEN ELIMINATED AT NODE 127 INSTANCE 
             PART-1-RIGID-INNER-1 BOUNDARY CONDITION TYPE ENCASTRE MAY NOT BE 
             APPLIED AT THIS NODE

 ***WARNING: DEGREE OF FREEDOM 3 HAS BEEN ELIMINATED AT NODE 127 INSTANCE 
             PART-1-RIGID-INNER-1 BOUNDARY CONDITION TYPE ENCASTRE MAY NOT BE 
             APPLIED AT THIS NODE

 ***WARNING: DEGREE OF FREEDOM 1 HAS BEEN ELIMINATED AT NODE 128 INSTANCE 
             PART-1-RIGID-INNER-1 BOUNDARY CONDITION TYPE ENCASTRE MAY NOT BE 
             APPLIED AT THIS NODE

 ***WARNING: DEGREE OF FREEDOM 2 HAS BEEN ELIMINATED AT NODE 128 INSTANCE 
             PART-1-RIGID-INNER-1 BOUNDARY CONDITION TYPE ENCASTRE MAY NOT BE 
             APPLIED AT THIS NODE

 ***WARNING: DEGREE OF FREEDOM 3 HAS BEEN ELIMINATED AT NODE 128 INSTANCE 
             PART-1-RIGID-INNER-1 BOUNDARY CONDITION TYPE ENCASTRE MAY NOT BE 
             APPLIED AT THIS NODE

 ***WARNING: DEGREE OF FREEDOM 1 HAS BEEN ELIMINATED AT NODE 129 INSTANCE 
             PART-1-RIGID-INNER-1 BOUNDARY CONDITION TYPE ENCASTRE MAY NOT BE 
             APPLIED AT THIS NODE

 ***WARNING: DEGREE OF FREEDOM 2 HAS BEEN ELIMINATED AT NODE 129 INSTANCE 
             PART-1-RIGID-INNER-1 BOUNDARY CONDITION TYPE ENCASTRE MAY NOT BE 
             APPLIED AT THIS NODE

 ***WARNING: DEGREE OF FREEDOM 3 HAS BEEN ELIMINATED AT NODE 129 INSTANCE 
             PART-1-RIGID-INNER-1 BOUNDARY CONDITION TYPE ENCASTRE MAY NOT BE 
             APPLIED AT THIS NODE

 ***WARNING: DEGREE OF FREEDOM 1 HAS BEEN ELIMINATED AT NODE 130 INSTANCE 
             PART-1-RIGID-INNER-1 BOUNDARY CONDITION TYPE ENCASTRE MAY NOT BE 
             APPLIED AT THIS NODE

 ***WARNING: DEGREE OF FREEDOM 2 HAS BEEN ELIMINATED AT NODE 130 INSTANCE 
             PART-1-RIGID-INNER-1 BOUNDARY CONDITION TYPE ENCASTRE MAY NOT BE 
             APPLIED AT THIS NODE

 ***WARNING: DEGREE OF FREEDOM 3 HAS BEEN ELIMINATED AT NODE 130 INSTANCE 
             PART-1-RIGID-INNER-1 BOUNDARY CONDITION TYPE ENCASTRE MAY NOT BE 
             APPLIED AT THIS NODE

 ***WARNING: DEGREE OF FREEDOM 1 HAS BEEN ELIMINATED AT NODE 131 INSTANCE 
             PART-1-RIGID-INNER-1 BOUNDARY CONDITION TYPE ENCASTRE MAY NOT BE 
             APPLIED AT THIS NODE

 ***WARNING: DEGREE OF FREEDOM 2 HAS BEEN ELIMINATED AT NODE 131 INSTANCE 
             PART-1-RIGID-INNER-1 BOUNDARY CONDITION TYPE ENCASTRE MAY NOT BE 
             APPLIED AT THIS NODE

 ***WARNING: DEGREE OF FREEDOM 3 HAS BEEN ELIMINATED AT NODE 131 INSTANCE 
             PART-1-RIGID-INNER-1 BOUNDARY CONDITION TYPE ENCASTRE MAY NOT BE 
             APPLIED AT THIS NODE

 ***WARNING: DEGREE OF FREEDOM 1 HAS BEEN ELIMINATED AT NODE 132 INSTANCE 
             PART-1-RIGID-INNER-1 BOUNDARY CONDITION TYPE ENCASTRE MAY NOT BE 
             APPLIED AT THIS NODE

 ***WARNING: DEGREE OF FREEDOM 2 HAS BEEN ELIMINATED AT NODE 132 INSTANCE 
             PART-1-RIGID-INNER-1 BOUNDARY CONDITION TYPE ENCASTRE MAY NOT BE 
             APPLIED AT THIS NODE

 ***WARNING: DEGREE OF FREEDOM 3 HAS BEEN ELIMINATED AT NODE 132 INSTANCE 
             PART-1-RIGID-INNER-1 BOUNDARY CONDITION TYPE ENCASTRE MAY NOT BE 
             APPLIED AT THIS NODE

 ***WARNING: DEGREE OF FREEDOM 1 HAS BEEN ELIMINATED AT NODE 133 INSTANCE 
             PART-1-RIGID-INNER-1 BOUNDARY CONDITION TYPE ENCASTRE MAY NOT BE 
             APPLIED AT THIS NODE

 ***WARNING: DEGREE OF FREEDOM 2 HAS BEEN ELIMINATED AT NODE 133 INSTANCE 
             PART-1-RIGID-INNER-1 BOUNDARY CONDITION TYPE ENCASTRE MAY NOT BE 
             APPLIED AT THIS NODE

 ***WARNING: DEGREE OF FREEDOM 3 HAS BEEN ELIMINATED AT NODE 133 INSTANCE 
             PART-1-RIGID-INNER-1 BOUNDARY CONDITION TYPE ENCASTRE MAY NOT BE 
             APPLIED AT THIS NODE

 ***WARNING: DEGREE OF FREEDOM 1 HAS BEEN ELIMINATED AT NODE 134 INSTANCE 
             PART-1-RIGID-INNER-1 BOUNDARY CONDITION TYPE ENCASTRE MAY NOT BE 
             APPLIED AT THIS NODE

 ***WARNING: DEGREE OF FREEDOM 2 HAS BEEN ELIMINATED AT NODE 134 INSTANCE 
             PART-1-RIGID-INNER-1 BOUNDARY CONDITION TYPE ENCASTRE MAY NOT BE 
             APPLIED AT THIS NODE

 ***WARNING: DEGREE OF FREEDOM 3 HAS BEEN ELIMINATED AT NODE 134 INSTANCE 
             PART-1-RIGID-INNER-1 BOUNDARY CONDITION TYPE ENCASTRE MAY NOT BE 
             APPLIED AT THIS NODE

 ***WARNING: DEGREE OF FREEDOM 1 HAS BEEN ELIMINATED AT NODE 135 INSTANCE 
             PART-1-RIGID-INNER-1 BOUNDARY CONDITION TYPE ENCASTRE MAY NOT BE 
             APPLIED AT THIS NODE

 ***WARNING: DEGREE OF FREEDOM 2 HAS BEEN ELIMINATED AT NODE 135 INSTANCE 
             PART-1-RIGID-INNER-1 BOUNDARY CONDITION TYPE ENCASTRE MAY NOT BE 
             APPLIED AT THIS NODE

 ***WARNING: DEGREE OF FREEDOM 3 HAS BEEN ELIMINATED AT NODE 135 INSTANCE 
             PART-1-RIGID-INNER-1 BOUNDARY CONDITION TYPE ENCASTRE MAY NOT BE 
             APPLIED AT THIS NODE

 ***WARNING: DEGREE OF FREEDOM 1 HAS BEEN ELIMINATED AT NODE 136 INSTANCE 
             PART-1-RIGID-INNER-1 BOUNDARY CONDITION TYPE ENCASTRE MAY NOT BE 
             APPLIED AT THIS NODE

 ***WARNING: DEGREE OF FREEDOM 2 HAS BEEN ELIMINATED AT NODE 136 INSTANCE 
             PART-1-RIGID-INNER-1 BOUNDARY CONDITION TYPE ENCASTRE MAY NOT BE 
             APPLIED AT THIS NODE

 ***WARNING: DEGREE OF FREEDOM 3 HAS BEEN ELIMINATED AT NODE 136 INSTANCE 
             PART-1-RIGID-INNER-1 BOUNDARY CONDITION TYPE ENCASTRE MAY NOT BE 
             APPLIED AT THIS NODE

 ***WARNING: DEGREE OF FREEDOM 1 HAS BEEN ELIMINATED AT NODE 137 INSTANCE 
             PART-1-RIGID-INNER-1 BOUNDARY CONDITION TYPE ENCASTRE MAY NOT BE 
             APPLIED AT THIS NODE

 ***WARNING: DEGREE OF FREEDOM 2 HAS BEEN ELIMINATED AT NODE 137 INSTANCE 
             PART-1-RIGID-INNER-1 BOUNDARY CONDITION TYPE ENCASTRE MAY NOT BE 
             APPLIED AT THIS NODE

 ***WARNING: DEGREE OF FREEDOM 3 HAS BEEN ELIMINATED AT NODE 137 INSTANCE 
             PART-1-RIGID-INNER-1 BOUNDARY CONDITION TYPE ENCASTRE MAY NOT BE 
             APPLIED AT THIS NODE

 ***WARNING: DEGREE OF FREEDOM 1 HAS BEEN ELIMINATED AT NODE 138 INSTANCE 
             PART-1-RIGID-INNER-1 BOUNDARY CONDITION TYPE ENCASTRE MAY NOT BE 
             APPLIED AT THIS NODE

 ***WARNING: DEGREE OF FREEDOM 2 HAS BEEN ELIMINATED AT NODE 138 INSTANCE 
             PART-1-RIGID-INNER-1 BOUNDARY CONDITION TYPE ENCASTRE MAY NOT BE 
             APPLIED AT THIS NODE

 ***WARNING: DEGREE OF FREEDOM 3 HAS BEEN ELIMINATED AT NODE 138 INSTANCE 
             PART-1-RIGID-INNER-1 BOUNDARY CONDITION TYPE ENCASTRE MAY NOT BE 
             APPLIED AT THIS NODE

 ***WARNING: DEGREE OF FREEDOM 1 HAS BEEN ELIMINATED AT NODE 139 INSTANCE 
             PART-1-RIGID-INNER-1 BOUNDARY CONDITION TYPE ENCASTRE MAY NOT BE 
             APPLIED AT THIS NODE

 ***WARNING: DEGREE OF FREEDOM 2 HAS BEEN ELIMINATED AT NODE 139 INSTANCE 
             PART-1-RIGID-INNER-1 BOUNDARY CONDITION TYPE ENCASTRE MAY NOT BE 
             APPLIED AT THIS NODE

 ***WARNING: DEGREE OF FREEDOM 3 HAS BEEN ELIMINATED AT NODE 139 INSTANCE 
             PART-1-RIGID-INNER-1 BOUNDARY CONDITION TYPE ENCASTRE MAY NOT BE 
             APPLIED AT THIS NODE

 ***WARNING: DEGREE OF FREEDOM 1 HAS BEEN ELIMINATED AT NODE 140 INSTANCE 
             PART-1-RIGID-INNER-1 BOUNDARY CONDITION TYPE ENCASTRE MAY NOT BE 
             APPLIED AT THIS NODE

 ***WARNING: DEGREE OF FREEDOM 2 HAS BEEN ELIMINATED AT NODE 140 INSTANCE 
             PART-1-RIGID-INNER-1 BOUNDARY CONDITION TYPE ENCASTRE MAY NOT BE 
             APPLIED AT THIS NODE

 ***WARNING: DEGREE OF FREEDOM 3 HAS BEEN ELIMINATED AT NODE 140 INSTANCE 
             PART-1-RIGID-INNER-1 BOUNDARY CONDITION TYPE ENCASTRE MAY NOT BE 
             APPLIED AT THIS NODE

 ***WARNING: DEGREE OF FREEDOM 1 HAS BEEN ELIMINATED AT NODE 141 INSTANCE 
             PART-1-RIGID-INNER-1 BOUNDARY CONDITION TYPE ENCASTRE MAY NOT BE 
             APPLIED AT THIS NODE

 ***WARNING: DEGREE OF FREEDOM 2 HAS BEEN ELIMINATED AT NODE 141 INSTANCE 
             PART-1-RIGID-INNER-1 BOUNDARY CONDITION TYPE ENCASTRE MAY NOT BE 
             APPLIED AT THIS NODE

 ***WARNING: DEGREE OF FREEDOM 3 HAS BEEN ELIMINATED AT NODE 141 INSTANCE 
             PART-1-RIGID-INNER-1 BOUNDARY CONDITION TYPE ENCASTRE MAY NOT BE 
             APPLIED AT THIS NODE

 ***WARNING: 141 nodes have dof on which incorrect boundary conditions may have 
             been specified. The nodes have been identified in node set 
             WarnNodeBCIncorrectDof.



                            P R O B L E M   S I Z E


          NUMBER OF ELEMENTS IS                                  4469
          NUMBER OF ELEMENTS DEFINED BY THE USER AND *TIE        4467
          NUMBER OF NODES IS                                     6235
          NUMBER OF NODES DEFINED BY THE USER                    6235
          TOTAL NUMBER OF VARIABLES IN THE MODEL                18711
          (DEGREES OF FREEDOM PLUS MAX NO. OF ANY LAGRANGE MULTIPLIER
           VARIABLES. INCLUDE *PRINT,SOLVE=YES TO GET THE ACTUAL NUMBER.)



                              END OF USER INPUT PROCESSING



     JOB TIME SUMMARY
       USER TIME (SEC)      =     0.20    
       SYSTEM TIME (SEC)    =      0.0    
       TOTAL CPU TIME (SEC) =     0.20    
       WALLCLOCK TIME (SEC) =            0
1

   Abaqus 2023                                  Date 16-Jul-2024   Time 09:58:23
   For use by TEXAS A_M UNIVERSITY SYSTEM under license from Dassault Systemes or its subsidiary.

                                                                                               STEP    1  INCREMENT    1
                                                                                          TIME COMPLETED IN THIS STEP   0.00    


                        S T E P       1     S T A T I C   A N A L Y S I S


                                                                                          

     AUTOMATIC TIME CONTROL WITH -
          A SUGGESTED INITIAL TIME INCREMENT OF                 1.00    
          AND A TOTAL TIME PERIOD OF                            1.00    
          THE MINIMUM TIME INCREMENT ALLOWED IS                1.000E-05
          THE MAXIMUM TIME INCREMENT ALLOWED IS                 1.00    

     LINEAR EQUATION SOLVER TYPE         DIRECT SPARSE
  
                   M E M O R Y   E S T I M A T E
  
 PROCESS      FLOATING PT       MINIMUM MEMORY        MEMORY TO
              OPERATIONS           REQUIRED          MINIMIZE I/O
             PER ITERATION           (MB)               (MB)
  
     1          8.53E+08               23                 73
  
 NOTE:
      (1) SINCE ABAQUS DOES NOT PRE-ALLOCATE MEMORY AND ONLY ALLOCATES MEMORY AS NEEDED DURING THE ANALYSIS,
          THE MEMORY REQUIREMENT PRINTED HERE CAN ONLY BE VIEWED AS A GENERAL GUIDELINE BASED ON THE BEST
          KNOWLEDGE AVAILABLE AT THE BEGINNING OF A STEP BEFORE THE SOLUTION PROCESS HAS BEGUN.
      (2) THE ESTIMATE IS NORMALLY UPDATED AT THE BEGINNING OF EVERY STEP. IT IS THE MAXIMUM VALUE OF THE
          ESTIMATE FROM THE CURRENT STEP TO THE LAST STEP OF THE ANALYSIS, WITH UNSYMMETRIC SOLUTION TAKEN
          INTO ACCOUNT IF APPLICABLE. 
      (3) SINCE THE ESTIMATE IS BASED ON THE ACTIVE DEGREES OF FREEDOM IN THE FIRST ITERATION OF THE 
          CURRENT STEP, THE MEMORY ESTIMATE MIGHT BE SIGNIFICANTLY DIFFERENT THAN ACTUAL USAGE FOR 
          PROBLEMS WITH SUBSTANTIAL CHANGES IN ACTIVE DEGREES OF FREEDOM BETWEEN STEPS (OR EVEN WITHIN
          THE SAME STEP). EXAMPLES ARE: PROBLEMS WITH SIGNIFICANT CONTACT CHANGES, PROBLEMS WITH MODEL
          CHANGE, PROBLEMS WITH BOTH STATIC STEP AND STEADY STATE DYNAMIC PROCEDURES WHERE ACOUSTIC 
          ELEMENTS WILL ONLY BE ACTIVATED IN THE STEADY STATE DYNAMIC STEPS.
      (4) FOR MULTI-PROCESS EXECUTION, THE ESTIMATED VALUE OF FLOATING POINT OPERATIONS FOR EACH PROCESS
          IS BASED ON AN INITIAL SCHEDULING OF OPERATIONS AND MIGHT NOT REFLECT THE ACTUAL FLOATING 
          POINT OPERATIONS COMPLETED ON EACH PROCESS. OPERATIONS ARE DYNAMICALLY BALANCED DURING EXECUTION, 
          SO THE ACTUAL BALANCE OF OPERATIONS BETWEEN PROCESSES IS EXPECTED TO BE BETTER THAN THE ESTIMATE
          PRINTED HERE.
      (5) THE UPPER LIMIT OF MEMORY THAT CAN BE ALLOCATED BY ABAQUS WILL IN GENERAL DEPEND ON THE VALUE OF
          THE "MEMORY" PARAMETER AND THE AMOUNT OF PHYSICAL MEMORY AVAILABLE ON THE MACHINE. PLEASE SEE
          THE "ABAQUS ANALYSIS USER'S MANUAL" FOR MORE DETAILS. THE ACTUAL USAGE OF MEMORY AND OF DISK
          SPACE FOR SCRATCH DATA WILL DEPEND ON THIS UPPER LIMIT AS WELL AS THE MEMORY REQUIRED TO MINIMIZE
          I/O. IF THE MEMORY UPPER LIMIT IS GREATER THAN THE MEMORY REQUIRED TO MINIMIZE I/O, THEN THE ACTUAL
          MEMORY USAGE WILL BE CLOSE TO THE ESTIMATED "MEMORY TO MINIMIZE I/O" VALUE, AND THE SCRATCH DISK
          USAGE WILL BE CLOSE-TO-ZERO; OTHERWISE, THE ACTUAL MEMORY USED WILL BE CLOSE TO THE PREVIOUSLY
          MENTIONED MEMORY LIMIT, AND THE SCRATCH DISK USAGE WILL BE ROUGHLY PROPORTIONAL TO THE DIFFERENCE
          BETWEEN THE ESTIMATED "MEMORY TO MINIMIZE I/O" AND THE MEMORY UPPER LIMIT. HOWEVER ACCURATE
          ESTIMATE OF THE SCRATCH DISK SPACE IS NOT POSSIBLE.
      (6) USING "*RESTART, WRITE" CAN GENERATE A LARGE AMOUNT OF DATA WRITTEN IN THE WORK DIRECTORY.


          THE ANALYSIS IS ENDED BECAUSE OF THE PROBLEMS ENCOUNTERED
          LOOK AT THE MSG FILE FOR THE CAUSE OF THE TERMINATION



                              ANALYSIS IS ENDED
                              WITH      1 ERROR MESSAGES ON THE MSG FILE
                              AND     916 WARNING MESSAGES ON THE DAT FILE
                              AND     180 WARNING MESSAGES ON THE MSG FILE
                                      150 WARNINGS ARE FOR NUMERICAL PROBLEMS
                                       30 WARNINGS ARE FOR NEGATIVE EIGENVALUES



     JOB TIME SUMMARY
       USER TIME (SEC)      =      3.7    
       SYSTEM TIME (SEC)    =     0.30    
       TOTAL CPU TIME (SEC) =      4.0    
       WALLCLOCK TIME (SEC) =            4
