1

   Abaqus 2023                                  Date 18-Jul-2024   Time 11:33:37
   For use by TEXAS A_M UNIVERSITY SYSTEM under license from Dassault Systemes or its subsidiary.



                         The Abaqus Software is a product of:

                           Dassault Systemes SIMULIA Corp.
                           1301 Atwood Avenue, Suite 101W
                              Johnston, RI 02919, USA
 


                   The Abaqus Software is available only under license
                   from Dassault Systemes or its subsidiary and may be
                   used or reproduced only in accordance with the terms
                   of such license.
 
                          On machine BCDC-HCLQCX3 
                          you are authorized to run
                          Abaqus/Standard until 30-Oct-2024

                          Your site id is: 200000000002185 


 
                    For assistance or any other information you may
                    obtain contact information for your local office
                    from the world wide web at:

                      http://www.3ds.com/products/simulia/locations/

 
                * * * * * * * * * * * * * * * * * * * * * * * * * * * * * * 
                *                                                         * 
                *                   *****************                     * 
                *                   *  N O T I C E  *                     * 
                *                   *****************                     * 
                *                                                         * 
                *                                                         * 
                *                       Abaqus 2023                       * 
                *                                                         * 
                *          BUILD ID: 2022_09_28-13.11.55 183150           * 
                *                                                         * 
                *                                                         * 
                *  Please make sure you are using                         * 
                *  release Abaqus 2023 manuals                            * 
                *  plus the notes accompanying this release.              * 
                *                                                         * 
                *                                                         * 
                *                                                         * 
                *                                                         * 
                *                                                         * 
                *   This program may not be used for commercial purposes  * 
                *           without payment of a commercial fee.          * 
                *                                                         * 
                * * * * * * * * * * * * * * * * * * * * * * * * * * * * * * 


 



     PROCESSING PART, INSTANCE, AND ASSEMBLY INFORMATION
   *******************************************************


     END PROCESSING PART, INSTANCE, AND ASSEMBLY INFORMATION
   ***********************************************************




     OPTIONS BEING PROCESSED
   ***************************


  *Heading
  *Node
  *Element, type=R3D4
  *Nset, nset="ASSEMBLY_Inner Surface_Inner Surface-RefPt_"
  *Elset, elset="ASSEMBLY_Inner Surface_Inner Surface"
  *Node
  *Element, type=R3D4
  *Nset, nset="ASSEMBLY_Outer Surface_Outer Surface-RefPt_"
  *Elset, elset="ASSEMBLY_Outer Surface_Outer Surface"
  *Node
  *Element, type=C3D8R
  *Nset, nset=ASSEMBLY_FLEXURE-OUTER-CUT-1_SECTION-SET
  *Elset, elset=ASSEMBLY_FLEXURE-OUTER-CUT-1_SECTION-SET
  *Nset, nset=ASSEMBLY_BOUNDARY-FIX-2
  *Nset, nset=ASSEMBLY_BOUNDARY-FIX-A
  *Nset, nset=ASSEMBLY_SET-3
  *Nset, nset=ASSEMBLY__T-CYLINDRICAL-CSYS
  *Elset, elset=ASSEMBLY_BOUNDARY-FIX-2
  *Elset, elset=ASSEMBLY_BOUNDARY-FIX-A
  *Elset, elset=ASSEMBLY__INNERLEFTSURFACED_S3
  *Elset, elset=ASSEMBLY__INNERLEFTSURFACE_SPOS
  *Elset, elset=ASSEMBLY__INNERRIGHTSURFACED_S3
  *Elset, elset=ASSEMBLY__INNERRIGHTSURFACE_SPOS
  *Elset, elset=ASSEMBLY__OUTERLEFTSURFACED_S3
  *Elset, elset=ASSEMBLY__OUTERLEFTSURFACE_SPOS
  *Elset, elset=ASSEMBLY__OUTERRIGHTSURFACED_S3
  *Elset, elset=ASSEMBLY__OUTERRIGHTSURFACE_SPOS
  *material, name=MARAGING300
  *elastic
  *plastic
  *solidsection, elset=ASSEMBLY_FLEXURE-OUTER-CUT-1_SECTION-SET, material=MARAGING300
  *solidsection, elset=ASSEMBLY_FLEXURE-OUTER-CUT-1_SECTION-SET, material=MARAGING300
  *rigidbody, refnode="ASSEMBLY_Inner Surface_Inner Surface-RefPt_", elset="ASSEMBLY_Inner Surface_Inner Surface"
  *rigidbody, refnode="ASSEMBLY_Outer Surface_Outer Surface-RefPt_", elset="ASSEMBLY_Outer Surface_Outer Surface"
  *tie, name=ASSEMBLY_INNERLEFTTIE, adjust=YES
  *tie, name=ASSEMBLY_INNERRIGHTTIE, adjust=YES
  *tie, name=ASSEMBLY_OUTERLEFTTIE, adjust=YES
  *tie, name=ASSEMBLY_OUTERRIGHTTIE, adjust=YES
  *surface, type=ELEMENT, name=ASSEMBLY_INNERLEFTSURFACE
  *surface, type=ELEMENT, name=ASSEMBLY_INNERLEFTSURFACED
  *surface, type=ELEMENT, name=ASSEMBLY_INNERRIGHTSURFACE
  *surface, type=ELEMENT, name=ASSEMBLY_INNERRIGHTSURFACED
  *surface, type=ELEMENT, name=ASSEMBLY_OUTERLEFTSURFACE
  *surface, type=ELEMENT, name=ASSEMBLY_OUTERLEFTSURFACED
  *surface, type=ELEMENT, name=ASSEMBLY_OUTERRIGHTSURFACE
  *surface, type=ELEMENT, name=ASSEMBLY_OUTERRIGHTSURFACED
  *rigidbody, refnode="ASSEMBLY_Inner Surface_Inner Surface-RefPt_", elset="ASSEMBLY_Inner Surface_Inner Surface"
  *rigidbody, refnode="ASSEMBLY_Outer Surface_Outer Surface-RefPt_", elset="ASSEMBLY_Outer Surface_Outer Surface"
  *rigidbody, refnode="ASSEMBLY_Inner Surface_Inner Surface-RefPt_", elset="ASSEMBLY_Inner Surface_Inner Surface"
  *rigidbody, refnode="ASSEMBLY_Outer Surface_Outer Surface-RefPt_", elset="ASSEMBLY_Outer Surface_Outer Surface"
  *rigidbody, refnode="ASSEMBLY_Inner Surface_Inner Surface-RefPt_", elset="ASSEMBLY_Inner Surface_Inner Surface"
  *rigidbody, refnode="ASSEMBLY_Outer Surface_Outer Surface-RefPt_", elset="ASSEMBLY_Outer Surface_Outer Surface"
  *tie, name=ASSEMBLY_INNERLEFTTIE, adjust=YES
  *tie, name=ASSEMBLY_INNERRIGHTTIE, adjust=YES
  *tie, name=ASSEMBLY_OUTERLEFTTIE, adjust=YES
  *tie, name=ASSEMBLY_OUTERRIGHTTIE, adjust=YES
  *surface, type=ELEMENT, name=ASSEMBLY_INNERLEFTSURFACE
  *surface, type=ELEMENT, name=ASSEMBLY_INNERLEFTSURFACED
  *surface, type=ELEMENT, name=ASSEMBLY_INNERRIGHTSURFACE
  *surface, type=ELEMENT, name=ASSEMBLY_INNERRIGHTSURFACED
  *surface, type=ELEMENT, name=ASSEMBLY_OUTERLEFTSURFACE
  *surface, type=ELEMENT, name=ASSEMBLY_OUTERLEFTSURFACED
  *surface, type=ELEMENT, name=ASSEMBLY_OUTERRIGHTSURFACE
  *surface, type=ELEMENT, name=ASSEMBLY_OUTERRIGHTSURFACED
  *surface, type=ELEMENT, name=ASSEMBLY_INNERLEFTSURFACE
  *surface, type=ELEMENT, name=ASSEMBLY_INNERLEFTSURFACED
  *surface, type=ELEMENT, name=ASSEMBLY_INNERRIGHTSURFACE
  *surface, type=ELEMENT, name=ASSEMBLY_INNERRIGHTSURFACED
  *surface, type=ELEMENT, name=ASSEMBLY_OUTERLEFTSURFACE
  *surface, type=ELEMENT, name=ASSEMBLY_OUTERLEFTSURFACED
  *surface, type=ELEMENT, name=ASSEMBLY_OUTERRIGHTSURFACE
  *surface, type=ELEMENT, name=ASSEMBLY_OUTERRIGHTSURFACED
  *tie, name=ASSEMBLY_INNERLEFTTIE, adjust=YES
  *tie, name=ASSEMBLY_INNERRIGHTTIE, adjust=YES
  *tie, name=ASSEMBLY_OUTERLEFTTIE, adjust=YES
  *tie, name=ASSEMBLY_OUTERRIGHTTIE, adjust=YES
  *rigidbody, refnode="ASSEMBLY_Inner Surface_Inner Surface-RefPt_", elset="ASSEMBLY_Inner Surface_Inner Surface"
  *rigidbody, refnode="ASSEMBLY_Outer Surface_Outer Surface-RefPt_", elset="ASSEMBLY_Outer Surface_Outer Surface"
  *tie, name=ASSEMBLY_INNERLEFTTIE, adjust=YES
  *tie, name=ASSEMBLY_INNERRIGHTTIE, adjust=YES
  *tie, name=ASSEMBLY_OUTERLEFTTIE, adjust=YES
  *tie, name=ASSEMBLY_OUTERRIGHTTIE, adjust=YES
  *rigidbody, refnode="ASSEMBLY_Inner Surface_Inner Surface-RefPt_", elset="ASSEMBLY_Inner Surface_Inner Surface"
  *rigidbody, refnode="ASSEMBLY_Outer Surface_Outer Surface-RefPt_", elset="ASSEMBLY_Outer Surface_Outer Surface"
  *rigidbody, refnode="ASSEMBLY_Inner Surface_Inner Surface-RefPt_", elset="ASSEMBLY_Inner Surface_Inner Surface"
  *rigidbody, refnode="ASSEMBLY_Outer Surface_Outer Surface-RefPt_", elset="ASSEMBLY_Outer Surface_Outer Surface"
  *transform, nset=ASSEMBLY__T-CYLINDRICAL-CSYS, type=C
  *boundary
  *boundary
  *boundary
  *boundary
  *tie, name=ASSEMBLY_INNERLEFTTIE, adjust=YES


  SECONDARY: ASSEMBLY_INNERLEFTSURFACED                                                      
  MAIN :     ASSEMBLY_INNERLEFTSURFACE                                                       
              DISTANCE
   NODE       ADJUSTED    REMARKS/WARNINGS

      1934   8.15135E-04  ADJUSTED TO ( -1.0111    , 0.24333    , 5.70527E-17).
      1935   1.85221E-05  ADJUSTED TO ( -1.0207    , 0.20335    ,-2.50979E-17).
      1936   8.36149E-04  ADJUSTED TO ( -1.0268    , 0.16452    ,-2.02967E-17).
      1938   8.15454E-04  ADJUSTED TO ( -1.0360    , 9.00871E-02,-1.60529E-17).
      1939   1.79372E-04  ADJUSTED TO ( -1.0392    , 5.31667E-02,-1.11453E-17).
      1940   6.14256E-04  ADJUSTED TO ( -1.0400    , 1.61794E-02,-4.65662E-18).
      1941   4.70093E-04  ADJUSTED TO ( -1.0401    ,-2.08532E-02,-9.51475E-18).
      1942   3.19946E-04  ADJUSTED TO ( -1.0388    ,-5.78921E-02,-1.28080E-17).
      1943   7.30738E-04  ADJUSTED TO ( -1.0357    ,-9.48978E-02, 2.85146E-17).
      1944   7.25110E-05  ADJUSTED TO ( -1.0323    ,-0.13199    ,-4.53770E-17).
      1945   8.33241E-04  ADJUSTED TO ( -1.0261    ,-0.16911    , 3.98062E-17).
      1947   8.36078E-04  ADJUSTED TO ( -1.0104    ,-0.24626    ,-2.22587E-17).
      2385   8.36078E-04  ADJUSTED TO ( -1.0104    ,-0.24626    , 0.37500    ).
      2387   8.33241E-04  ADJUSTED TO ( -1.0261    ,-0.16911    , 0.37500    ).
      2388   7.25110E-05  ADJUSTED TO ( -1.0323    ,-0.13199    , 0.37500    ).
      2389   7.30738E-04  ADJUSTED TO ( -1.0357    ,-9.48978E-02, 0.37500    ).
      2390   3.19946E-04  ADJUSTED TO ( -1.0388    ,-5.78921E-02, 0.37500    ).
      2391   4.70093E-04  ADJUSTED TO ( -1.0401    ,-2.08532E-02, 0.37500    ).
      2392   6.14256E-04  ADJUSTED TO ( -1.0400    , 1.61794E-02, 0.37500    ).
      2393   1.79372E-04  ADJUSTED TO ( -1.0392    , 5.31667E-02, 0.37500    ).




 ***WARNING: FOR *TIE PAIR 
             (ASSEMBLY_INNERLEFTSURFACED-ASSEMBLY_INNERLEFTSURFACE), NOT ALL 
             THE NODES THAT HAVE BEEN ADJUSTED WERE PRINTED. SPECIFY 
             *PREPRINT,MODEL=YES FOR COMPLETE PRINTOUT.

 ***WARNING: FOR *TIE PAIR 
             (ASSEMBLY_INNERLEFTSURFACED-ASSEMBLY_INNERLEFTSURFACE), ADJUSTED 
             NODES WITH VERY SMALL ADJUSTMENTS WERE NOT PRINTED. SPECIFY 
             *PREPRINT,MODEL=YES FOR COMPLETE PRINTOUT.
  *tie, name=ASSEMBLY_INNERRIGHTTIE, adjust=YES

 ***WARNING: 144 nodes have been adjusted. The nodes have been identified in 
             node set WarnNodeAdjust.


  SECONDARY: ASSEMBLY_INNERRIGHTSURFACED                                                     
  MAIN :     ASSEMBLY_INNERRIGHTSURFACE                                                      
              DISTANCE
   NODE       ADJUSTED    REMARKS/WARNINGS

      1056   5.60872E-04  ADJUSTED TO (  1.0105    , 0.24692    , 0.37500    ).
      1057   9.97112E-05  ADJUSTED TO (  1.0197    , 0.20786    , 0.37500    ).
      1058   4.66091E-04  ADJUSTED TO (  1.0263    , 0.16983    , 0.37500    ).
      1059   1.83325E-04  ADJUSTED TO (  1.0321    , 0.13234    , 0.37500    ).
      1060   4.08539E-04  ADJUSTED TO (  1.0360    , 9.48676E-02, 0.37500    ).
      1061   2.44359E-04  ADJUSTED TO (  1.0389    , 5.74664E-02, 0.37500    ).
      1062   3.59924E-04  ADJUSTED TO (  1.0402    , 2.00321E-02, 0.37500    ).
      1063   2.90591E-04  ADJUSTED TO (  1.0403    ,-1.73357E-02, 0.37500    ).
      1064   3.16356E-04  ADJUSTED TO (  1.0390    ,-5.46474E-02, 0.37500    ).
      1065   3.29207E-04  ADJUSTED TO (  1.0364    ,-9.18095E-02, 0.37500    ).
      1066   2.79528E-04  ADJUSTED TO (  1.0325    ,-0.12884    , 0.37500    ).
      1067   3.73759E-04  ADJUSTED TO (  1.0271    ,-0.16589    , 0.37500    ).
      1068   1.75904E-04  ADJUSTED TO (  1.0205    ,-0.20376    , 0.37500    ).
      1069   4.93975E-04  ADJUSTED TO (  1.0113    ,-0.24390    , 0.37500    ).
      1509   4.93975E-04  ADJUSTED TO (  1.0113    ,-0.24390    , 1.56290E-17).
      1510   1.75904E-04  ADJUSTED TO (  1.0205    ,-0.20376    , 1.96007E-18).
      1511   3.73759E-04  ADJUSTED TO (  1.0271    ,-0.16589    ,-1.71909E-18).
      1512   2.79528E-04  ADJUSTED TO (  1.0325    ,-0.12884    , 2.47268E-17).
      1513   3.29207E-04  ADJUSTED TO (  1.0364    ,-9.18095E-02,-5.33656E-17).
      1514   3.16356E-04  ADJUSTED TO (  1.0390    ,-5.46474E-02, 1.89870E-17).




 ***WARNING: FOR *TIE PAIR 
             (ASSEMBLY_INNERRIGHTSURFACED-ASSEMBLY_INNERRIGHTSURFACE), NOT ALL 
             THE NODES THAT HAVE BEEN ADJUSTED WERE PRINTED. SPECIFY 
             *PREPRINT,MODEL=YES FOR COMPLETE PRINTOUT.

 ***WARNING: FOR *TIE PAIR 
             (ASSEMBLY_INNERRIGHTSURFACED-ASSEMBLY_INNERRIGHTSURFACE), ADJUSTED 
             NODES WITH VERY SMALL ADJUSTMENTS WERE NOT PRINTED. SPECIFY 
             *PREPRINT,MODEL=YES FOR COMPLETE PRINTOUT.
  *tie, name=ASSEMBLY_OUTERLEFTTIE, adjust=YES

 ***WARNING: 168 nodes have been adjusted. The nodes have been identified in 
             node set WarnNodeAdjust.

 ***WARNING: *TIE BETWEEN SURFACE PAIR 
             (ASSEMBLY_OUTERLEFTSURFACED,ASSEMBLY_OUTERLEFTSURFACE) IS REVERTED 
             BACK TO TYPE NODE-TO-SURFACE. THIS CASE MAY HAPPEN IF TYPE 
             SURFACE-TO-SURFACE CANNOT FIND NODES TO TIE TOGETHER OR IF DEFAULT 
             ACOUSTIC-STRUCTURAL TIE IS SPECIFIED INVOLVING SHELLS. PLEASE 
             CHECK THE SURFACE DEFINITIONS OR SPECIFY TYPE=SURFACE TO SURFACE 
             FOR ACOUSTIC-STRUCTURAL TIE.


  SECONDARY: ASSEMBLY_OUTERLEFTSURFACED                                                      
  MAIN :     ASSEMBLY_OUTERLEFTSURFACE                                                       
              DISTANCE
   NODE       ADJUSTED    REMARKS/WARNINGS

       847   5.50397E-04  ADJUSTED TO ( -2.3195    , 0.93112    , 0.37500    ).
       848   5.53200E-04  ADJUSTED TO ( -2.3338    , 0.89481    , 0.37500    ).
       849   9.01996E-05  ADJUSTED TO ( -2.3485    , 0.85669    , 0.37500    ).
       850   6.09032E-04  ADJUSTED TO ( -2.3622    , 0.81682    , 0.37500    ).
       851   4.04755E-04  ADJUSTED TO ( -2.3761    , 0.77602    , 0.37500    ).
       852   3.87419E-04  ADJUSTED TO ( -2.3894    , 0.73412    , 0.37500    ).
       853   6.07233E-04  ADJUSTED TO ( -2.4020    , 0.69108    , 0.37500    ).
       854   5.91328E-04  ADJUSTED TO ( -2.4257    , 0.60265    , 0.37500    ).
       855   3.33323E-04  ADJUSTED TO ( -2.4367    , 0.55735    , 0.37500    ).
       856   4.74893E-04  ADJUSTED TO ( -2.4467    , 0.51110    , 0.37500    ).
       857   5.13523E-04  ADJUSTED TO ( -2.4560    , 0.46423    , 0.37500    ).
       858   2.81674E-04  ADJUSTED TO ( -2.4647    , 0.41700    , 0.37500    ).
       859   5.97872E-04  ADJUSTED TO ( -2.4719    , 0.36958    , 0.37500    ).
      1306   6.07233E-04  ADJUSTED TO ( -2.4020    , 0.69108    ,  0.0000    ).
      1307   3.87419E-04  ADJUSTED TO ( -2.3894    , 0.73412    ,  0.0000    ).
      1308   4.04755E-04  ADJUSTED TO ( -2.3761    , 0.77602    ,  0.0000    ).
      1309   6.09032E-04  ADJUSTED TO ( -2.3622    , 0.81682    ,  0.0000    ).
      1310   9.01996E-05  ADJUSTED TO ( -2.3485    , 0.85669    ,  0.0000    ).
      1311   5.53200E-04  ADJUSTED TO ( -2.3338    , 0.89481    ,  0.0000    ).
      1312   5.50397E-04  ADJUSTED TO ( -2.3195    , 0.93112    ,  0.0000    ).




 ***WARNING: FOR *TIE PAIR 
             (ASSEMBLY_OUTERLEFTSURFACED-ASSEMBLY_OUTERLEFTSURFACE), NOT ALL 
             THE NODES THAT HAVE BEEN ADJUSTED WERE PRINTED. SPECIFY 
             *PREPRINT,MODEL=YES FOR COMPLETE PRINTOUT.

 ***WARNING: FOR *TIE PAIR 
             (ASSEMBLY_OUTERLEFTSURFACED-ASSEMBLY_OUTERLEFTSURFACE), ADJUSTED 
             NODES WITH VERY SMALL ADJUSTMENTS WERE NOT PRINTED. SPECIFY 
             *PREPRINT,MODEL=YES FOR COMPLETE PRINTOUT.
  *tie, name=ASSEMBLY_OUTERRIGHTTIE, adjust=YES

 ***WARNING: 156 nodes have been adjusted. The nodes have been identified in 
             node set WarnNodeAdjust.

 ***WARNING: *TIE BETWEEN SURFACE PAIR 
             (ASSEMBLY_OUTERRIGHTSURFACED,ASSEMBLY_OUTERRIGHTSURFACE) IS 
             REVERTED BACK TO TYPE NODE-TO-SURFACE. THIS CASE MAY HAPPEN IF 
             TYPE SURFACE-TO-SURFACE CANNOT FIND NODES TO TIE TOGETHER OR IF 
             DEFAULT ACOUSTIC-STRUCTURAL TIE IS SPECIFIED INVOLVING SHELLS. 
             PLEASE CHECK THE SURFACE DEFINITIONS OR SPECIFY TYPE=SURFACE TO 
             SURFACE FOR ACOUSTIC-STRUCTURAL TIE.


  SECONDARY: ASSEMBLY_OUTERRIGHTSURFACED                                                     
  MAIN :     ASSEMBLY_OUTERRIGHTSURFACE                                                      
              DISTANCE
   NODE       ADJUSTED    REMARKS/WARNINGS

      1725   6.09084E-04  ADJUSTED TO (  2.4709    ,-0.37642    ,  0.0000    ).
      1726   2.08804E-05  ADJUSTED TO (  2.4626    ,-0.43061    ,  0.0000    ).
      1727   6.08680E-04  ADJUSTED TO (  2.4520    ,-0.48430    ,  0.0000    ).
      1728   4.32672E-05  ADJUSTED TO (  2.4414    ,-0.53787    ,  0.0000    ).
      1729   6.08245E-04  ADJUSTED TO (  2.4284    ,-0.59133    ,  0.0000    ).
      1730   5.65341E-04  ADJUSTED TO (  2.4041    ,-0.68385    ,  0.0000    ).
      1731   5.25067E-04  ADJUSTED TO (  2.3927    ,-0.72260    ,  0.0000    ).
      1732   1.47885E-04  ADJUSTED TO (  2.3811    ,-0.76127    ,  0.0000    ).
      1733   6.10434E-04  ADJUSTED TO (  2.3683    ,-0.79880    ,  0.0000    ).
      1734   4.55744E-04  ADJUSTED TO (  2.3558    ,-0.83538    ,  0.0000    ).
      1735   2.18226E-04  ADJUSTED TO (  2.3433    ,-0.87067    ,  0.0000    ).
      1736   6.10603E-04  ADJUSTED TO (  2.3301    ,-0.90416    ,  0.0000    ).
      1737   5.05492E-04  ADJUSTED TO (  2.3177    ,-0.93582    ,  0.0000    ).
      2184   6.08245E-04  ADJUSTED TO (  2.4284    ,-0.59133    , 0.37500    ).
      2185   4.32672E-05  ADJUSTED TO (  2.4414    ,-0.53787    , 0.37500    ).
      2186   6.08680E-04  ADJUSTED TO (  2.4520    ,-0.48430    , 0.37500    ).
      2187   2.08804E-05  ADJUSTED TO (  2.4626    ,-0.43061    , 0.37500    ).
      2188   6.09084E-04  ADJUSTED TO (  2.4709    ,-0.37642    , 0.37500    ).
      2595   5.05492E-04  ADJUSTED TO (  2.3177    ,-0.93582    , 0.37500    ).
      2596   6.10603E-04  ADJUSTED TO (  2.3301    ,-0.90416    , 0.37500    ).




 ***WARNING: FOR *TIE PAIR 
             (ASSEMBLY_OUTERRIGHTSURFACED-ASSEMBLY_OUTERRIGHTSURFACE), NOT ALL 
             THE NODES THAT HAVE BEEN ADJUSTED WERE PRINTED. SPECIFY 
             *PREPRINT,MODEL=YES FOR COMPLETE PRINTOUT.

 ***WARNING: FOR *TIE PAIR 
             (ASSEMBLY_OUTERRIGHTSURFACED-ASSEMBLY_OUTERRIGHTSURFACE), ADJUSTED 
             NODES WITH VERY SMALL ADJUSTMENTS WERE NOT PRINTED. SPECIFY 
             *PREPRINT,MODEL=YES FOR COMPLETE PRINTOUT.

 ***WARNING: 156 nodes have been adjusted. The nodes have been identified in 
             node set WarnNodeAdjust.
  *tie, name=ASSEMBLY_INNERLEFTTIE, adjust=YES
  *tie, name=ASSEMBLY_INNERRIGHTTIE, adjust=YES
  *tie, name=ASSEMBLY_OUTERLEFTTIE, adjust=YES
  *tie, name=ASSEMBLY_OUTERRIGHTTIE, adjust=YES
  *tie, name=ASSEMBLY_INNERLEFTTIE, adjust=YES
  *tie, name=ASSEMBLY_INNERRIGHTTIE, adjust=YES
  *tie, name=ASSEMBLY_OUTERLEFTTIE, adjust=YES
  *tie, name=ASSEMBLY_OUTERRIGHTTIE, adjust=YES
  *rigidbody, refnode="ASSEMBLY_Inner Surface_Inner Surface-RefPt_", elset="ASSEMBLY_Inner Surface_Inner Surface"
  *rigidbody, refnode="ASSEMBLY_Outer Surface_Outer Surface-RefPt_", elset="ASSEMBLY_Outer Surface_Outer Surface"
  *surface, type=ELEMENT, name=ASSEMBLY_INNERLEFTSURFACE
  *surface, type=ELEMENT, name=ASSEMBLY_INNERLEFTSURFACED
  *surface, type=ELEMENT, name=ASSEMBLY_INNERRIGHTSURFACE
  *surface, type=ELEMENT, name=ASSEMBLY_INNERRIGHTSURFACED
  *surface, type=ELEMENT, name=ASSEMBLY_OUTERLEFTSURFACE
  *surface, type=ELEMENT, name=ASSEMBLY_OUTERLEFTSURFACED
  *surface, type=ELEMENT, name=ASSEMBLY_OUTERRIGHTSURFACE
  *surface, type=ELEMENT, name=ASSEMBLY_OUTERRIGHTSURFACED
  *tie, name=ASSEMBLY_INNERLEFTTIE, adjust=YES
  *tie, name=ASSEMBLY_INNERRIGHTTIE, adjust=YES
  *tie, name=ASSEMBLY_OUTERLEFTTIE, adjust=YES
  *tie, name=ASSEMBLY_OUTERRIGHTTIE, adjust=YES
  *output, field, variable=PRESELECT
  *output, history, variable=PRESELECT

 ***WARNING: NODE 509 INSTANCE Outer Surface LIES ON THE AXIS OF ITS 
             CYLINDRICAL OR SPHERICAL TRANSFORMATION SYSTEM.  THE LOCAL 
             COORDINATE SYSTEM AT THIS NODE IS NOT WELL-DEFINED. CONSTRAINTS ON 
             THIS NODE WILL BE IGNORED IF TRANSFORMATION IS NOT CORRECTED.
  *output, field, variable=PRESELECT
  *output, history, variable=PRESELECT

 ***WARNING: 1 nodes lie on the axis of their cylindrical or spherical 
             transformation systems. The local coordinate systems at these 
             nodes are not well-defined. The nodes have been identified in node 
             set WarnNodeCylTransSys.
  *output, field, variable=PRESELECT
  *output, history, variable=PRESELECT
  *Step, name=Moment-Step, nlgeom=NO
  *output, field, variable=PRESELECT
  *output, history, variable=PRESELECT
  *Step, name=Moment-Step, nlgeom=NO
  *Step, name=Moment-Step, nlgeom=NO
  *static
  *output, field, variable=PRESELECT
  *output, history, variable=PRESELECT
  *endstep
  *boundary
  *boundary
  *Step, name=Moment-Step, nlgeom=NO
  *static
  *cload
  *endstep

 ***WARNING: OVERCONSTRAINT CHECKS: NODE 1 INSTANCE Inner Surface IS A 
             DEPENDENT NODE IN A *RIGID BODY OPTION AND HAS A SPECIFIED 
             BOUNDARY CONDITION. THE BOUNDARY CONDITIONS AT THIS NODE WILL BE 
             TRANSFERRED TO THE RIGID BODY REFERENCE  NODE 317 INSTANCE Inner 
             Surface. THE BOUNDARY CONDITIONS AT NODE 1 INSTANCE Inner Surface 
             WILL BE IGNORED.

 ***WARNING: 2 nodes associated with rigid bodies have boundary conditions 
             prescribed at nodes other than the reference node. These boundary 
             conditions will be transferred to the associated rigid body 
             reference node.The reference nodes and the dependent nodes have 
             been identified in node set WarnNodeOverconBoundRB.

 ***WARNING: DEGREE OF FREEDOM 1 HAS BEEN ELIMINATED AT NODE 1 INSTANCE Inner 
             Surface BOUNDARY CONDITION TYPE ENCASTRE MAY NOT BE APPLIED AT 
             THIS NODE

 ***WARNING: DEGREE OF FREEDOM 2 HAS BEEN ELIMINATED AT NODE 1 INSTANCE Inner 
             Surface BOUNDARY CONDITION TYPE ENCASTRE MAY NOT BE APPLIED AT 
             THIS NODE

 ***WARNING: DEGREE OF FREEDOM 3 HAS BEEN ELIMINATED AT NODE 1 INSTANCE Inner 
             Surface BOUNDARY CONDITION TYPE ENCASTRE MAY NOT BE APPLIED AT 
             THIS NODE

 ***WARNING: DEGREE OF FREEDOM 1 HAS BEEN ELIMINATED AT NODE 2 INSTANCE Inner 
             Surface BOUNDARY CONDITION TYPE ENCASTRE MAY NOT BE APPLIED AT 
             THIS NODE

 ***WARNING: DEGREE OF FREEDOM 2 HAS BEEN ELIMINATED AT NODE 2 INSTANCE Inner 
             Surface BOUNDARY CONDITION TYPE ENCASTRE MAY NOT BE APPLIED AT 
             THIS NODE

 ***WARNING: DEGREE OF FREEDOM 3 HAS BEEN ELIMINATED AT NODE 2 INSTANCE Inner 
             Surface BOUNDARY CONDITION TYPE ENCASTRE MAY NOT BE APPLIED AT 
             THIS NODE

 ***WARNING: DEGREE OF FREEDOM 1 HAS BEEN ELIMINATED AT NODE 3 INSTANCE Inner 
             Surface BOUNDARY CONDITION TYPE ENCASTRE MAY NOT BE APPLIED AT 
             THIS NODE

 ***WARNING: DEGREE OF FREEDOM 2 HAS BEEN ELIMINATED AT NODE 3 INSTANCE Inner 
             Surface BOUNDARY CONDITION TYPE ENCASTRE MAY NOT BE APPLIED AT 
             THIS NODE

 ***WARNING: DEGREE OF FREEDOM 3 HAS BEEN ELIMINATED AT NODE 3 INSTANCE Inner 
             Surface BOUNDARY CONDITION TYPE ENCASTRE MAY NOT BE APPLIED AT 
             THIS NODE

 ***WARNING: DEGREE OF FREEDOM 1 HAS BEEN ELIMINATED AT NODE 4 INSTANCE Inner 
             Surface BOUNDARY CONDITION TYPE ENCASTRE MAY NOT BE APPLIED AT 
             THIS NODE

 ***WARNING: DEGREE OF FREEDOM 2 HAS BEEN ELIMINATED AT NODE 4 INSTANCE Inner 
             Surface BOUNDARY CONDITION TYPE ENCASTRE MAY NOT BE APPLIED AT 
             THIS NODE

 ***WARNING: DEGREE OF FREEDOM 3 HAS BEEN ELIMINATED AT NODE 4 INSTANCE Inner 
             Surface BOUNDARY CONDITION TYPE ENCASTRE MAY NOT BE APPLIED AT 
             THIS NODE

 ***WARNING: DEGREE OF FREEDOM 1 HAS BEEN ELIMINATED AT NODE 5 INSTANCE Inner 
             Surface BOUNDARY CONDITION TYPE ENCASTRE MAY NOT BE APPLIED AT 
             THIS NODE

 ***WARNING: DEGREE OF FREEDOM 2 HAS BEEN ELIMINATED AT NODE 5 INSTANCE Inner 
             Surface BOUNDARY CONDITION TYPE ENCASTRE MAY NOT BE APPLIED AT 
             THIS NODE

 ***WARNING: DEGREE OF FREEDOM 3 HAS BEEN ELIMINATED AT NODE 5 INSTANCE Inner 
             Surface BOUNDARY CONDITION TYPE ENCASTRE MAY NOT BE APPLIED AT 
             THIS NODE

 ***WARNING: DEGREE OF FREEDOM 1 HAS BEEN ELIMINATED AT NODE 6 INSTANCE Inner 
             Surface BOUNDARY CONDITION TYPE ENCASTRE MAY NOT BE APPLIED AT 
             THIS NODE

 ***WARNING: DEGREE OF FREEDOM 2 HAS BEEN ELIMINATED AT NODE 6 INSTANCE Inner 
             Surface BOUNDARY CONDITION TYPE ENCASTRE MAY NOT BE APPLIED AT 
             THIS NODE

 ***WARNING: DEGREE OF FREEDOM 3 HAS BEEN ELIMINATED AT NODE 6 INSTANCE Inner 
             Surface BOUNDARY CONDITION TYPE ENCASTRE MAY NOT BE APPLIED AT 
             THIS NODE

 ***WARNING: DEGREE OF FREEDOM 1 HAS BEEN ELIMINATED AT NODE 7 INSTANCE Inner 
             Surface BOUNDARY CONDITION TYPE ENCASTRE MAY NOT BE APPLIED AT 
             THIS NODE

 ***WARNING: DEGREE OF FREEDOM 2 HAS BEEN ELIMINATED AT NODE 7 INSTANCE Inner 
             Surface BOUNDARY CONDITION TYPE ENCASTRE MAY NOT BE APPLIED AT 
             THIS NODE

 ***WARNING: DEGREE OF FREEDOM 3 HAS BEEN ELIMINATED AT NODE 7 INSTANCE Inner 
             Surface BOUNDARY CONDITION TYPE ENCASTRE MAY NOT BE APPLIED AT 
             THIS NODE

 ***WARNING: DEGREE OF FREEDOM 1 HAS BEEN ELIMINATED AT NODE 8 INSTANCE Inner 
             Surface BOUNDARY CONDITION TYPE ENCASTRE MAY NOT BE APPLIED AT 
             THIS NODE

 ***WARNING: DEGREE OF FREEDOM 2 HAS BEEN ELIMINATED AT NODE 8 INSTANCE Inner 
             Surface BOUNDARY CONDITION TYPE ENCASTRE MAY NOT BE APPLIED AT 
             THIS NODE

 ***WARNING: DEGREE OF FREEDOM 3 HAS BEEN ELIMINATED AT NODE 8 INSTANCE Inner 
             Surface BOUNDARY CONDITION TYPE ENCASTRE MAY NOT BE APPLIED AT 
             THIS NODE

 ***WARNING: DEGREE OF FREEDOM 1 HAS BEEN ELIMINATED AT NODE 11 INSTANCE Inner 
             Surface BOUNDARY CONDITION TYPE ENCASTRE MAY NOT BE APPLIED AT 
             THIS NODE

 ***WARNING: DEGREE OF FREEDOM 2 HAS BEEN ELIMINATED AT NODE 11 INSTANCE Inner 
             Surface BOUNDARY CONDITION TYPE ENCASTRE MAY NOT BE APPLIED AT 
             THIS NODE

 ***WARNING: DEGREE OF FREEDOM 3 HAS BEEN ELIMINATED AT NODE 11 INSTANCE Inner 
             Surface BOUNDARY CONDITION TYPE ENCASTRE MAY NOT BE APPLIED AT 
             THIS NODE

 ***WARNING: DEGREE OF FREEDOM 1 HAS BEEN ELIMINATED AT NODE 12 INSTANCE Inner 
             Surface BOUNDARY CONDITION TYPE ENCASTRE MAY NOT BE APPLIED AT 
             THIS NODE

 ***WARNING: DEGREE OF FREEDOM 2 HAS BEEN ELIMINATED AT NODE 12 INSTANCE Inner 
             Surface BOUNDARY CONDITION TYPE ENCASTRE MAY NOT BE APPLIED AT 
             THIS NODE

 ***WARNING: DEGREE OF FREEDOM 3 HAS BEEN ELIMINATED AT NODE 12 INSTANCE Inner 
             Surface BOUNDARY CONDITION TYPE ENCASTRE MAY NOT BE APPLIED AT 
             THIS NODE

 ***WARNING: DEGREE OF FREEDOM 1 HAS BEEN ELIMINATED AT NODE 13 INSTANCE Inner 
             Surface BOUNDARY CONDITION TYPE ENCASTRE MAY NOT BE APPLIED AT 
             THIS NODE

 ***WARNING: DEGREE OF FREEDOM 2 HAS BEEN ELIMINATED AT NODE 13 INSTANCE Inner 
             Surface BOUNDARY CONDITION TYPE ENCASTRE MAY NOT BE APPLIED AT 
             THIS NODE

 ***WARNING: DEGREE OF FREEDOM 3 HAS BEEN ELIMINATED AT NODE 13 INSTANCE Inner 
             Surface BOUNDARY CONDITION TYPE ENCASTRE MAY NOT BE APPLIED AT 
             THIS NODE

 ***WARNING: DEGREE OF FREEDOM 1 HAS BEEN ELIMINATED AT NODE 14 INSTANCE Inner 
             Surface BOUNDARY CONDITION TYPE ENCASTRE MAY NOT BE APPLIED AT 
             THIS NODE

 ***WARNING: DEGREE OF FREEDOM 2 HAS BEEN ELIMINATED AT NODE 14 INSTANCE Inner 
             Surface BOUNDARY CONDITION TYPE ENCASTRE MAY NOT BE APPLIED AT 
             THIS NODE

 ***WARNING: DEGREE OF FREEDOM 3 HAS BEEN ELIMINATED AT NODE 14 INSTANCE Inner 
             Surface BOUNDARY CONDITION TYPE ENCASTRE MAY NOT BE APPLIED AT 
             THIS NODE

 ***WARNING: DEGREE OF FREEDOM 1 HAS BEEN ELIMINATED AT NODE 15 INSTANCE Inner 
             Surface BOUNDARY CONDITION TYPE ENCASTRE MAY NOT BE APPLIED AT 
             THIS NODE

 ***WARNING: DEGREE OF FREEDOM 2 HAS BEEN ELIMINATED AT NODE 15 INSTANCE Inner 
             Surface BOUNDARY CONDITION TYPE ENCASTRE MAY NOT BE APPLIED AT 
             THIS NODE

 ***WARNING: DEGREE OF FREEDOM 3 HAS BEEN ELIMINATED AT NODE 15 INSTANCE Inner 
             Surface BOUNDARY CONDITION TYPE ENCASTRE MAY NOT BE APPLIED AT 
             THIS NODE

 ***WARNING: DEGREE OF FREEDOM 1 HAS BEEN ELIMINATED AT NODE 16 INSTANCE Inner 
             Surface BOUNDARY CONDITION TYPE ENCASTRE MAY NOT BE APPLIED AT 
             THIS NODE

 ***WARNING: DEGREE OF FREEDOM 2 HAS BEEN ELIMINATED AT NODE 16 INSTANCE Inner 
             Surface BOUNDARY CONDITION TYPE ENCASTRE MAY NOT BE APPLIED AT 
             THIS NODE

 ***WARNING: DEGREE OF FREEDOM 3 HAS BEEN ELIMINATED AT NODE 16 INSTANCE Inner 
             Surface BOUNDARY CONDITION TYPE ENCASTRE MAY NOT BE APPLIED AT 
             THIS NODE

 ***WARNING: DEGREE OF FREEDOM 1 HAS BEEN ELIMINATED AT NODE 17 INSTANCE Inner 
             Surface BOUNDARY CONDITION TYPE ENCASTRE MAY NOT BE APPLIED AT 
             THIS NODE

 ***WARNING: DEGREE OF FREEDOM 2 HAS BEEN ELIMINATED AT NODE 17 INSTANCE Inner 
             Surface BOUNDARY CONDITION TYPE ENCASTRE MAY NOT BE APPLIED AT 
             THIS NODE

 ***WARNING: DEGREE OF FREEDOM 3 HAS BEEN ELIMINATED AT NODE 17 INSTANCE Inner 
             Surface BOUNDARY CONDITION TYPE ENCASTRE MAY NOT BE APPLIED AT 
             THIS NODE

 ***WARNING: DEGREE OF FREEDOM 1 HAS BEEN ELIMINATED AT NODE 18 INSTANCE Inner 
             Surface BOUNDARY CONDITION TYPE ENCASTRE MAY NOT BE APPLIED AT 
             THIS NODE

 ***WARNING: DEGREE OF FREEDOM 2 HAS BEEN ELIMINATED AT NODE 18 INSTANCE Inner 
             Surface BOUNDARY CONDITION TYPE ENCASTRE MAY NOT BE APPLIED AT 
             THIS NODE

 ***WARNING: DEGREE OF FREEDOM 3 HAS BEEN ELIMINATED AT NODE 18 INSTANCE Inner 
             Surface BOUNDARY CONDITION TYPE ENCASTRE MAY NOT BE APPLIED AT 
             THIS NODE

 ***WARNING: DEGREE OF FREEDOM 1 HAS BEEN ELIMINATED AT NODE 19 INSTANCE Inner 
             Surface BOUNDARY CONDITION TYPE ENCASTRE MAY NOT BE APPLIED AT 
             THIS NODE

 ***WARNING: DEGREE OF FREEDOM 2 HAS BEEN ELIMINATED AT NODE 19 INSTANCE Inner 
             Surface BOUNDARY CONDITION TYPE ENCASTRE MAY NOT BE APPLIED AT 
             THIS NODE

 ***WARNING: DEGREE OF FREEDOM 3 HAS BEEN ELIMINATED AT NODE 19 INSTANCE Inner 
             Surface BOUNDARY CONDITION TYPE ENCASTRE MAY NOT BE APPLIED AT 
             THIS NODE

 ***WARNING: DEGREE OF FREEDOM 1 HAS BEEN ELIMINATED AT NODE 20 INSTANCE Inner 
             Surface BOUNDARY CONDITION TYPE ENCASTRE MAY NOT BE APPLIED AT 
             THIS NODE

 ***WARNING: DEGREE OF FREEDOM 2 HAS BEEN ELIMINATED AT NODE 20 INSTANCE Inner 
             Surface BOUNDARY CONDITION TYPE ENCASTRE MAY NOT BE APPLIED AT 
             THIS NODE

 ***WARNING: DEGREE OF FREEDOM 3 HAS BEEN ELIMINATED AT NODE 20 INSTANCE Inner 
             Surface BOUNDARY CONDITION TYPE ENCASTRE MAY NOT BE APPLIED AT 
             THIS NODE

 ***WARNING: DEGREE OF FREEDOM 1 HAS BEEN ELIMINATED AT NODE 21 INSTANCE Inner 
             Surface BOUNDARY CONDITION TYPE ENCASTRE MAY NOT BE APPLIED AT 
             THIS NODE

 ***WARNING: DEGREE OF FREEDOM 2 HAS BEEN ELIMINATED AT NODE 21 INSTANCE Inner 
             Surface BOUNDARY CONDITION TYPE ENCASTRE MAY NOT BE APPLIED AT 
             THIS NODE

 ***WARNING: DEGREE OF FREEDOM 3 HAS BEEN ELIMINATED AT NODE 21 INSTANCE Inner 
             Surface BOUNDARY CONDITION TYPE ENCASTRE MAY NOT BE APPLIED AT 
             THIS NODE

 ***WARNING: DEGREE OF FREEDOM 1 HAS BEEN ELIMINATED AT NODE 22 INSTANCE Inner 
             Surface BOUNDARY CONDITION TYPE ENCASTRE MAY NOT BE APPLIED AT 
             THIS NODE

 ***WARNING: DEGREE OF FREEDOM 2 HAS BEEN ELIMINATED AT NODE 22 INSTANCE Inner 
             Surface BOUNDARY CONDITION TYPE ENCASTRE MAY NOT BE APPLIED AT 
             THIS NODE

 ***WARNING: DEGREE OF FREEDOM 3 HAS BEEN ELIMINATED AT NODE 22 INSTANCE Inner 
             Surface BOUNDARY CONDITION TYPE ENCASTRE MAY NOT BE APPLIED AT 
             THIS NODE

 ***WARNING: DEGREE OF FREEDOM 1 HAS BEEN ELIMINATED AT NODE 23 INSTANCE Inner 
             Surface BOUNDARY CONDITION TYPE ENCASTRE MAY NOT BE APPLIED AT 
             THIS NODE

 ***WARNING: DEGREE OF FREEDOM 2 HAS BEEN ELIMINATED AT NODE 23 INSTANCE Inner 
             Surface BOUNDARY CONDITION TYPE ENCASTRE MAY NOT BE APPLIED AT 
             THIS NODE

 ***WARNING: DEGREE OF FREEDOM 3 HAS BEEN ELIMINATED AT NODE 23 INSTANCE Inner 
             Surface BOUNDARY CONDITION TYPE ENCASTRE MAY NOT BE APPLIED AT 
             THIS NODE

 ***WARNING: DEGREE OF FREEDOM 1 HAS BEEN ELIMINATED AT NODE 24 INSTANCE Inner 
             Surface BOUNDARY CONDITION TYPE ENCASTRE MAY NOT BE APPLIED AT 
             THIS NODE

 ***WARNING: DEGREE OF FREEDOM 2 HAS BEEN ELIMINATED AT NODE 24 INSTANCE Inner 
             Surface BOUNDARY CONDITION TYPE ENCASTRE MAY NOT BE APPLIED AT 
             THIS NODE

 ***WARNING: DEGREE OF FREEDOM 3 HAS BEEN ELIMINATED AT NODE 24 INSTANCE Inner 
             Surface BOUNDARY CONDITION TYPE ENCASTRE MAY NOT BE APPLIED AT 
             THIS NODE

 ***WARNING: DEGREE OF FREEDOM 1 HAS BEEN ELIMINATED AT NODE 25 INSTANCE Inner 
             Surface BOUNDARY CONDITION TYPE ENCASTRE MAY NOT BE APPLIED AT 
             THIS NODE

 ***WARNING: DEGREE OF FREEDOM 2 HAS BEEN ELIMINATED AT NODE 25 INSTANCE Inner 
             Surface BOUNDARY CONDITION TYPE ENCASTRE MAY NOT BE APPLIED AT 
             THIS NODE

 ***WARNING: DEGREE OF FREEDOM 3 HAS BEEN ELIMINATED AT NODE 25 INSTANCE Inner 
             Surface BOUNDARY CONDITION TYPE ENCASTRE MAY NOT BE APPLIED AT 
             THIS NODE

 ***WARNING: DEGREE OF FREEDOM 1 HAS BEEN ELIMINATED AT NODE 26 INSTANCE Inner 
             Surface BOUNDARY CONDITION TYPE ENCASTRE MAY NOT BE APPLIED AT 
             THIS NODE

 ***WARNING: DEGREE OF FREEDOM 2 HAS BEEN ELIMINATED AT NODE 26 INSTANCE Inner 
             Surface BOUNDARY CONDITION TYPE ENCASTRE MAY NOT BE APPLIED AT 
             THIS NODE

 ***WARNING: DEGREE OF FREEDOM 3 HAS BEEN ELIMINATED AT NODE 26 INSTANCE Inner 
             Surface BOUNDARY CONDITION TYPE ENCASTRE MAY NOT BE APPLIED AT 
             THIS NODE

 ***WARNING: DEGREE OF FREEDOM 1 HAS BEEN ELIMINATED AT NODE 27 INSTANCE Inner 
             Surface BOUNDARY CONDITION TYPE ENCASTRE MAY NOT BE APPLIED AT 
             THIS NODE

 ***WARNING: DEGREE OF FREEDOM 2 HAS BEEN ELIMINATED AT NODE 27 INSTANCE Inner 
             Surface BOUNDARY CONDITION TYPE ENCASTRE MAY NOT BE APPLIED AT 
             THIS NODE

 ***WARNING: DEGREE OF FREEDOM 3 HAS BEEN ELIMINATED AT NODE 27 INSTANCE Inner 
             Surface BOUNDARY CONDITION TYPE ENCASTRE MAY NOT BE APPLIED AT 
             THIS NODE

 ***WARNING: DEGREE OF FREEDOM 1 HAS BEEN ELIMINATED AT NODE 28 INSTANCE Inner 
             Surface BOUNDARY CONDITION TYPE ENCASTRE MAY NOT BE APPLIED AT 
             THIS NODE

 ***WARNING: DEGREE OF FREEDOM 2 HAS BEEN ELIMINATED AT NODE 28 INSTANCE Inner 
             Surface BOUNDARY CONDITION TYPE ENCASTRE MAY NOT BE APPLIED AT 
             THIS NODE

 ***WARNING: DEGREE OF FREEDOM 3 HAS BEEN ELIMINATED AT NODE 28 INSTANCE Inner 
             Surface BOUNDARY CONDITION TYPE ENCASTRE MAY NOT BE APPLIED AT 
             THIS NODE

 ***WARNING: DEGREE OF FREEDOM 1 HAS BEEN ELIMINATED AT NODE 29 INSTANCE Inner 
             Surface BOUNDARY CONDITION TYPE ENCASTRE MAY NOT BE APPLIED AT 
             THIS NODE

 ***WARNING: DEGREE OF FREEDOM 2 HAS BEEN ELIMINATED AT NODE 29 INSTANCE Inner 
             Surface BOUNDARY CONDITION TYPE ENCASTRE MAY NOT BE APPLIED AT 
             THIS NODE

 ***WARNING: DEGREE OF FREEDOM 3 HAS BEEN ELIMINATED AT NODE 29 INSTANCE Inner 
             Surface BOUNDARY CONDITION TYPE ENCASTRE MAY NOT BE APPLIED AT 
             THIS NODE

 ***WARNING: DEGREE OF FREEDOM 1 HAS BEEN ELIMINATED AT NODE 30 INSTANCE Inner 
             Surface BOUNDARY CONDITION TYPE ENCASTRE MAY NOT BE APPLIED AT 
             THIS NODE

 ***WARNING: DEGREE OF FREEDOM 2 HAS BEEN ELIMINATED AT NODE 30 INSTANCE Inner 
             Surface BOUNDARY CONDITION TYPE ENCASTRE MAY NOT BE APPLIED AT 
             THIS NODE

 ***WARNING: DEGREE OF FREEDOM 3 HAS BEEN ELIMINATED AT NODE 30 INSTANCE Inner 
             Surface BOUNDARY CONDITION TYPE ENCASTRE MAY NOT BE APPLIED AT 
             THIS NODE

 ***WARNING: DEGREE OF FREEDOM 1 HAS BEEN ELIMINATED AT NODE 31 INSTANCE Inner 
             Surface BOUNDARY CONDITION TYPE ENCASTRE MAY NOT BE APPLIED AT 
             THIS NODE

 ***WARNING: DEGREE OF FREEDOM 2 HAS BEEN ELIMINATED AT NODE 31 INSTANCE Inner 
             Surface BOUNDARY CONDITION TYPE ENCASTRE MAY NOT BE APPLIED AT 
             THIS NODE

 ***WARNING: DEGREE OF FREEDOM 3 HAS BEEN ELIMINATED AT NODE 31 INSTANCE Inner 
             Surface BOUNDARY CONDITION TYPE ENCASTRE MAY NOT BE APPLIED AT 
             THIS NODE

 ***WARNING: DEGREE OF FREEDOM 1 HAS BEEN ELIMINATED AT NODE 32 INSTANCE Inner 
             Surface BOUNDARY CONDITION TYPE ENCASTRE MAY NOT BE APPLIED AT 
             THIS NODE

 ***WARNING: DEGREE OF FREEDOM 2 HAS BEEN ELIMINATED AT NODE 32 INSTANCE Inner 
             Surface BOUNDARY CONDITION TYPE ENCASTRE MAY NOT BE APPLIED AT 
             THIS NODE

 ***WARNING: DEGREE OF FREEDOM 3 HAS BEEN ELIMINATED AT NODE 32 INSTANCE Inner 
             Surface BOUNDARY CONDITION TYPE ENCASTRE MAY NOT BE APPLIED AT 
             THIS NODE

 ***WARNING: DEGREE OF FREEDOM 1 HAS BEEN ELIMINATED AT NODE 33 INSTANCE Inner 
             Surface BOUNDARY CONDITION TYPE ENCASTRE MAY NOT BE APPLIED AT 
             THIS NODE

 ***WARNING: DEGREE OF FREEDOM 2 HAS BEEN ELIMINATED AT NODE 33 INSTANCE Inner 
             Surface BOUNDARY CONDITION TYPE ENCASTRE MAY NOT BE APPLIED AT 
             THIS NODE

 ***WARNING: DEGREE OF FREEDOM 3 HAS BEEN ELIMINATED AT NODE 33 INSTANCE Inner 
             Surface BOUNDARY CONDITION TYPE ENCASTRE MAY NOT BE APPLIED AT 
             THIS NODE

 ***WARNING: DEGREE OF FREEDOM 1 HAS BEEN ELIMINATED AT NODE 34 INSTANCE Inner 
             Surface BOUNDARY CONDITION TYPE ENCASTRE MAY NOT BE APPLIED AT 
             THIS NODE

 ***WARNING: DEGREE OF FREEDOM 2 HAS BEEN ELIMINATED AT NODE 34 INSTANCE Inner 
             Surface BOUNDARY CONDITION TYPE ENCASTRE MAY NOT BE APPLIED AT 
             THIS NODE

 ***WARNING: DEGREE OF FREEDOM 3 HAS BEEN ELIMINATED AT NODE 34 INSTANCE Inner 
             Surface BOUNDARY CONDITION TYPE ENCASTRE MAY NOT BE APPLIED AT 
             THIS NODE

 ***WARNING: DEGREE OF FREEDOM 1 HAS BEEN ELIMINATED AT NODE 35 INSTANCE Inner 
             Surface BOUNDARY CONDITION TYPE ENCASTRE MAY NOT BE APPLIED AT 
             THIS NODE

 ***WARNING: DEGREE OF FREEDOM 2 HAS BEEN ELIMINATED AT NODE 35 INSTANCE Inner 
             Surface BOUNDARY CONDITION TYPE ENCASTRE MAY NOT BE APPLIED AT 
             THIS NODE

 ***WARNING: DEGREE OF FREEDOM 3 HAS BEEN ELIMINATED AT NODE 35 INSTANCE Inner 
             Surface BOUNDARY CONDITION TYPE ENCASTRE MAY NOT BE APPLIED AT 
             THIS NODE

 ***WARNING: DEGREE OF FREEDOM 1 HAS BEEN ELIMINATED AT NODE 36 INSTANCE Inner 
             Surface BOUNDARY CONDITION TYPE ENCASTRE MAY NOT BE APPLIED AT 
             THIS NODE

 ***WARNING: DEGREE OF FREEDOM 2 HAS BEEN ELIMINATED AT NODE 36 INSTANCE Inner 
             Surface BOUNDARY CONDITION TYPE ENCASTRE MAY NOT BE APPLIED AT 
             THIS NODE

 ***WARNING: DEGREE OF FREEDOM 3 HAS BEEN ELIMINATED AT NODE 36 INSTANCE Inner 
             Surface BOUNDARY CONDITION TYPE ENCASTRE MAY NOT BE APPLIED AT 
             THIS NODE

 ***WARNING: DEGREE OF FREEDOM 1 HAS BEEN ELIMINATED AT NODE 37 INSTANCE Inner 
             Surface BOUNDARY CONDITION TYPE ENCASTRE MAY NOT BE APPLIED AT 
             THIS NODE

 ***WARNING: DEGREE OF FREEDOM 2 HAS BEEN ELIMINATED AT NODE 37 INSTANCE Inner 
             Surface BOUNDARY CONDITION TYPE ENCASTRE MAY NOT BE APPLIED AT 
             THIS NODE

 ***WARNING: DEGREE OF FREEDOM 3 HAS BEEN ELIMINATED AT NODE 37 INSTANCE Inner 
             Surface BOUNDARY CONDITION TYPE ENCASTRE MAY NOT BE APPLIED AT 
             THIS NODE

 ***WARNING: DEGREE OF FREEDOM 1 HAS BEEN ELIMINATED AT NODE 38 INSTANCE Inner 
             Surface BOUNDARY CONDITION TYPE ENCASTRE MAY NOT BE APPLIED AT 
             THIS NODE

 ***WARNING: DEGREE OF FREEDOM 2 HAS BEEN ELIMINATED AT NODE 38 INSTANCE Inner 
             Surface BOUNDARY CONDITION TYPE ENCASTRE MAY NOT BE APPLIED AT 
             THIS NODE

 ***WARNING: DEGREE OF FREEDOM 3 HAS BEEN ELIMINATED AT NODE 38 INSTANCE Inner 
             Surface BOUNDARY CONDITION TYPE ENCASTRE MAY NOT BE APPLIED AT 
             THIS NODE

 ***WARNING: DEGREE OF FREEDOM 1 HAS BEEN ELIMINATED AT NODE 39 INSTANCE Inner 
             Surface BOUNDARY CONDITION TYPE ENCASTRE MAY NOT BE APPLIED AT 
             THIS NODE

 ***WARNING: DEGREE OF FREEDOM 2 HAS BEEN ELIMINATED AT NODE 39 INSTANCE Inner 
             Surface BOUNDARY CONDITION TYPE ENCASTRE MAY NOT BE APPLIED AT 
             THIS NODE

 ***WARNING: DEGREE OF FREEDOM 3 HAS BEEN ELIMINATED AT NODE 39 INSTANCE Inner 
             Surface BOUNDARY CONDITION TYPE ENCASTRE MAY NOT BE APPLIED AT 
             THIS NODE

 ***WARNING: DEGREE OF FREEDOM 1 HAS BEEN ELIMINATED AT NODE 40 INSTANCE Inner 
             Surface BOUNDARY CONDITION TYPE ENCASTRE MAY NOT BE APPLIED AT 
             THIS NODE

 ***WARNING: DEGREE OF FREEDOM 2 HAS BEEN ELIMINATED AT NODE 40 INSTANCE Inner 
             Surface BOUNDARY CONDITION TYPE ENCASTRE MAY NOT BE APPLIED AT 
             THIS NODE

 ***WARNING: DEGREE OF FREEDOM 3 HAS BEEN ELIMINATED AT NODE 40 INSTANCE Inner 
             Surface BOUNDARY CONDITION TYPE ENCASTRE MAY NOT BE APPLIED AT 
             THIS NODE

 ***WARNING: DEGREE OF FREEDOM 1 HAS BEEN ELIMINATED AT NODE 41 INSTANCE Inner 
             Surface BOUNDARY CONDITION TYPE ENCASTRE MAY NOT BE APPLIED AT 
             THIS NODE

 ***WARNING: DEGREE OF FREEDOM 2 HAS BEEN ELIMINATED AT NODE 41 INSTANCE Inner 
             Surface BOUNDARY CONDITION TYPE ENCASTRE MAY NOT BE APPLIED AT 
             THIS NODE

 ***WARNING: DEGREE OF FREEDOM 3 HAS BEEN ELIMINATED AT NODE 41 INSTANCE Inner 
             Surface BOUNDARY CONDITION TYPE ENCASTRE MAY NOT BE APPLIED AT 
             THIS NODE

 ***WARNING: DEGREE OF FREEDOM 1 HAS BEEN ELIMINATED AT NODE 42 INSTANCE Inner 
             Surface BOUNDARY CONDITION TYPE ENCASTRE MAY NOT BE APPLIED AT 
             THIS NODE

 ***WARNING: DEGREE OF FREEDOM 2 HAS BEEN ELIMINATED AT NODE 42 INSTANCE Inner 
             Surface BOUNDARY CONDITION TYPE ENCASTRE MAY NOT BE APPLIED AT 
             THIS NODE

 ***WARNING: DEGREE OF FREEDOM 3 HAS BEEN ELIMINATED AT NODE 42 INSTANCE Inner 
             Surface BOUNDARY CONDITION TYPE ENCASTRE MAY NOT BE APPLIED AT 
             THIS NODE

 ***WARNING: DEGREE OF FREEDOM 1 HAS BEEN ELIMINATED AT NODE 43 INSTANCE Inner 
             Surface BOUNDARY CONDITION TYPE ENCASTRE MAY NOT BE APPLIED AT 
             THIS NODE

 ***WARNING: DEGREE OF FREEDOM 2 HAS BEEN ELIMINATED AT NODE 43 INSTANCE Inner 
             Surface BOUNDARY CONDITION TYPE ENCASTRE MAY NOT BE APPLIED AT 
             THIS NODE

 ***WARNING: DEGREE OF FREEDOM 3 HAS BEEN ELIMINATED AT NODE 43 INSTANCE Inner 
             Surface BOUNDARY CONDITION TYPE ENCASTRE MAY NOT BE APPLIED AT 
             THIS NODE

 ***WARNING: DEGREE OF FREEDOM 1 HAS BEEN ELIMINATED AT NODE 44 INSTANCE Inner 
             Surface BOUNDARY CONDITION TYPE ENCASTRE MAY NOT BE APPLIED AT 
             THIS NODE

 ***WARNING: DEGREE OF FREEDOM 2 HAS BEEN ELIMINATED AT NODE 44 INSTANCE Inner 
             Surface BOUNDARY CONDITION TYPE ENCASTRE MAY NOT BE APPLIED AT 
             THIS NODE

 ***WARNING: DEGREE OF FREEDOM 3 HAS BEEN ELIMINATED AT NODE 44 INSTANCE Inner 
             Surface BOUNDARY CONDITION TYPE ENCASTRE MAY NOT BE APPLIED AT 
             THIS NODE

 ***WARNING: DEGREE OF FREEDOM 1 HAS BEEN ELIMINATED AT NODE 45 INSTANCE Inner 
             Surface BOUNDARY CONDITION TYPE ENCASTRE MAY NOT BE APPLIED AT 
             THIS NODE

 ***WARNING: DEGREE OF FREEDOM 2 HAS BEEN ELIMINATED AT NODE 45 INSTANCE Inner 
             Surface BOUNDARY CONDITION TYPE ENCASTRE MAY NOT BE APPLIED AT 
             THIS NODE

 ***WARNING: DEGREE OF FREEDOM 3 HAS BEEN ELIMINATED AT NODE 45 INSTANCE Inner 
             Surface BOUNDARY CONDITION TYPE ENCASTRE MAY NOT BE APPLIED AT 
             THIS NODE

 ***WARNING: DEGREE OF FREEDOM 1 HAS BEEN ELIMINATED AT NODE 46 INSTANCE Inner 
             Surface BOUNDARY CONDITION TYPE ENCASTRE MAY NOT BE APPLIED AT 
             THIS NODE

 ***WARNING: DEGREE OF FREEDOM 2 HAS BEEN ELIMINATED AT NODE 46 INSTANCE Inner 
             Surface BOUNDARY CONDITION TYPE ENCASTRE MAY NOT BE APPLIED AT 
             THIS NODE

 ***WARNING: DEGREE OF FREEDOM 3 HAS BEEN ELIMINATED AT NODE 46 INSTANCE Inner 
             Surface BOUNDARY CONDITION TYPE ENCASTRE MAY NOT BE APPLIED AT 
             THIS NODE

 ***WARNING: DEGREE OF FREEDOM 1 HAS BEEN ELIMINATED AT NODE 47 INSTANCE Inner 
             Surface BOUNDARY CONDITION TYPE ENCASTRE MAY NOT BE APPLIED AT 
             THIS NODE

 ***WARNING: DEGREE OF FREEDOM 2 HAS BEEN ELIMINATED AT NODE 47 INSTANCE Inner 
             Surface BOUNDARY CONDITION TYPE ENCASTRE MAY NOT BE APPLIED AT 
             THIS NODE

 ***WARNING: DEGREE OF FREEDOM 3 HAS BEEN ELIMINATED AT NODE 47 INSTANCE Inner 
             Surface BOUNDARY CONDITION TYPE ENCASTRE MAY NOT BE APPLIED AT 
             THIS NODE

 ***WARNING: DEGREE OF FREEDOM 1 HAS BEEN ELIMINATED AT NODE 48 INSTANCE Inner 
             Surface BOUNDARY CONDITION TYPE ENCASTRE MAY NOT BE APPLIED AT 
             THIS NODE

 ***WARNING: DEGREE OF FREEDOM 2 HAS BEEN ELIMINATED AT NODE 48 INSTANCE Inner 
             Surface BOUNDARY CONDITION TYPE ENCASTRE MAY NOT BE APPLIED AT 
             THIS NODE

 ***WARNING: DEGREE OF FREEDOM 3 HAS BEEN ELIMINATED AT NODE 48 INSTANCE Inner 
             Surface BOUNDARY CONDITION TYPE ENCASTRE MAY NOT BE APPLIED AT 
             THIS NODE

 ***WARNING: DEGREE OF FREEDOM 1 HAS BEEN ELIMINATED AT NODE 49 INSTANCE Inner 
             Surface BOUNDARY CONDITION TYPE ENCASTRE MAY NOT BE APPLIED AT 
             THIS NODE

 ***WARNING: DEGREE OF FREEDOM 2 HAS BEEN ELIMINATED AT NODE 49 INSTANCE Inner 
             Surface BOUNDARY CONDITION TYPE ENCASTRE MAY NOT BE APPLIED AT 
             THIS NODE

 ***WARNING: DEGREE OF FREEDOM 3 HAS BEEN ELIMINATED AT NODE 49 INSTANCE Inner 
             Surface BOUNDARY CONDITION TYPE ENCASTRE MAY NOT BE APPLIED AT 
             THIS NODE

 ***WARNING: DEGREE OF FREEDOM 1 HAS BEEN ELIMINATED AT NODE 50 INSTANCE Inner 
             Surface BOUNDARY CONDITION TYPE ENCASTRE MAY NOT BE APPLIED AT 
             THIS NODE

 ***WARNING: DEGREE OF FREEDOM 2 HAS BEEN ELIMINATED AT NODE 50 INSTANCE Inner 
             Surface BOUNDARY CONDITION TYPE ENCASTRE MAY NOT BE APPLIED AT 
             THIS NODE

 ***WARNING: DEGREE OF FREEDOM 3 HAS BEEN ELIMINATED AT NODE 50 INSTANCE Inner 
             Surface BOUNDARY CONDITION TYPE ENCASTRE MAY NOT BE APPLIED AT 
             THIS NODE

 ***WARNING: DEGREE OF FREEDOM 1 HAS BEEN ELIMINATED AT NODE 51 INSTANCE Inner 
             Surface BOUNDARY CONDITION TYPE ENCASTRE MAY NOT BE APPLIED AT 
             THIS NODE

 ***WARNING: DEGREE OF FREEDOM 2 HAS BEEN ELIMINATED AT NODE 51 INSTANCE Inner 
             Surface BOUNDARY CONDITION TYPE ENCASTRE MAY NOT BE APPLIED AT 
             THIS NODE

 ***WARNING: DEGREE OF FREEDOM 3 HAS BEEN ELIMINATED AT NODE 51 INSTANCE Inner 
             Surface BOUNDARY CONDITION TYPE ENCASTRE MAY NOT BE APPLIED AT 
             THIS NODE

 ***WARNING: DEGREE OF FREEDOM 1 HAS BEEN ELIMINATED AT NODE 52 INSTANCE Inner 
             Surface BOUNDARY CONDITION TYPE ENCASTRE MAY NOT BE APPLIED AT 
             THIS NODE

 ***WARNING: DEGREE OF FREEDOM 2 HAS BEEN ELIMINATED AT NODE 52 INSTANCE Inner 
             Surface BOUNDARY CONDITION TYPE ENCASTRE MAY NOT BE APPLIED AT 
             THIS NODE

 ***WARNING: DEGREE OF FREEDOM 3 HAS BEEN ELIMINATED AT NODE 52 INSTANCE Inner 
             Surface BOUNDARY CONDITION TYPE ENCASTRE MAY NOT BE APPLIED AT 
             THIS NODE

 ***WARNING: DEGREE OF FREEDOM 1 HAS BEEN ELIMINATED AT NODE 53 INSTANCE Inner 
             Surface BOUNDARY CONDITION TYPE ENCASTRE MAY NOT BE APPLIED AT 
             THIS NODE

 ***WARNING: DEGREE OF FREEDOM 2 HAS BEEN ELIMINATED AT NODE 53 INSTANCE Inner 
             Surface BOUNDARY CONDITION TYPE ENCASTRE MAY NOT BE APPLIED AT 
             THIS NODE

 ***WARNING: DEGREE OF FREEDOM 3 HAS BEEN ELIMINATED AT NODE 53 INSTANCE Inner 
             Surface BOUNDARY CONDITION TYPE ENCASTRE MAY NOT BE APPLIED AT 
             THIS NODE

 ***WARNING: DEGREE OF FREEDOM 1 HAS BEEN ELIMINATED AT NODE 54 INSTANCE Inner 
             Surface BOUNDARY CONDITION TYPE ENCASTRE MAY NOT BE APPLIED AT 
             THIS NODE

 ***WARNING: DEGREE OF FREEDOM 2 HAS BEEN ELIMINATED AT NODE 54 INSTANCE Inner 
             Surface BOUNDARY CONDITION TYPE ENCASTRE MAY NOT BE APPLIED AT 
             THIS NODE

 ***WARNING: DEGREE OF FREEDOM 3 HAS BEEN ELIMINATED AT NODE 54 INSTANCE Inner 
             Surface BOUNDARY CONDITION TYPE ENCASTRE MAY NOT BE APPLIED AT 
             THIS NODE

 ***WARNING: DEGREE OF FREEDOM 1 HAS BEEN ELIMINATED AT NODE 55 INSTANCE Inner 
             Surface BOUNDARY CONDITION TYPE ENCASTRE MAY NOT BE APPLIED AT 
             THIS NODE

 ***WARNING: DEGREE OF FREEDOM 2 HAS BEEN ELIMINATED AT NODE 55 INSTANCE Inner 
             Surface BOUNDARY CONDITION TYPE ENCASTRE MAY NOT BE APPLIED AT 
             THIS NODE

 ***WARNING: DEGREE OF FREEDOM 3 HAS BEEN ELIMINATED AT NODE 55 INSTANCE Inner 
             Surface BOUNDARY CONDITION TYPE ENCASTRE MAY NOT BE APPLIED AT 
             THIS NODE

 ***WARNING: DEGREE OF FREEDOM 1 HAS BEEN ELIMINATED AT NODE 56 INSTANCE Inner 
             Surface BOUNDARY CONDITION TYPE ENCASTRE MAY NOT BE APPLIED AT 
             THIS NODE

 ***WARNING: DEGREE OF FREEDOM 2 HAS BEEN ELIMINATED AT NODE 56 INSTANCE Inner 
             Surface BOUNDARY CONDITION TYPE ENCASTRE MAY NOT BE APPLIED AT 
             THIS NODE

 ***WARNING: DEGREE OF FREEDOM 3 HAS BEEN ELIMINATED AT NODE 56 INSTANCE Inner 
             Surface BOUNDARY CONDITION TYPE ENCASTRE MAY NOT BE APPLIED AT 
             THIS NODE

 ***WARNING: DEGREE OF FREEDOM 1 HAS BEEN ELIMINATED AT NODE 57 INSTANCE Inner 
             Surface BOUNDARY CONDITION TYPE ENCASTRE MAY NOT BE APPLIED AT 
             THIS NODE

 ***WARNING: DEGREE OF FREEDOM 2 HAS BEEN ELIMINATED AT NODE 57 INSTANCE Inner 
             Surface BOUNDARY CONDITION TYPE ENCASTRE MAY NOT BE APPLIED AT 
             THIS NODE

 ***WARNING: DEGREE OF FREEDOM 3 HAS BEEN ELIMINATED AT NODE 57 INSTANCE Inner 
             Surface BOUNDARY CONDITION TYPE ENCASTRE MAY NOT BE APPLIED AT 
             THIS NODE

 ***WARNING: DEGREE OF FREEDOM 1 HAS BEEN ELIMINATED AT NODE 58 INSTANCE Inner 
             Surface BOUNDARY CONDITION TYPE ENCASTRE MAY NOT BE APPLIED AT 
             THIS NODE

 ***WARNING: DEGREE OF FREEDOM 2 HAS BEEN ELIMINATED AT NODE 58 INSTANCE Inner 
             Surface BOUNDARY CONDITION TYPE ENCASTRE MAY NOT BE APPLIED AT 
             THIS NODE

 ***WARNING: DEGREE OF FREEDOM 3 HAS BEEN ELIMINATED AT NODE 58 INSTANCE Inner 
             Surface BOUNDARY CONDITION TYPE ENCASTRE MAY NOT BE APPLIED AT 
             THIS NODE

 ***WARNING: DEGREE OF FREEDOM 1 HAS BEEN ELIMINATED AT NODE 59 INSTANCE Inner 
             Surface BOUNDARY CONDITION TYPE ENCASTRE MAY NOT BE APPLIED AT 
             THIS NODE

 ***WARNING: DEGREE OF FREEDOM 2 HAS BEEN ELIMINATED AT NODE 59 INSTANCE Inner 
             Surface BOUNDARY CONDITION TYPE ENCASTRE MAY NOT BE APPLIED AT 
             THIS NODE

 ***WARNING: DEGREE OF FREEDOM 3 HAS BEEN ELIMINATED AT NODE 59 INSTANCE Inner 
             Surface BOUNDARY CONDITION TYPE ENCASTRE MAY NOT BE APPLIED AT 
             THIS NODE

 ***WARNING: DEGREE OF FREEDOM 1 HAS BEEN ELIMINATED AT NODE 60 INSTANCE Inner 
             Surface BOUNDARY CONDITION TYPE ENCASTRE MAY NOT BE APPLIED AT 
             THIS NODE

 ***WARNING: DEGREE OF FREEDOM 2 HAS BEEN ELIMINATED AT NODE 60 INSTANCE Inner 
             Surface BOUNDARY CONDITION TYPE ENCASTRE MAY NOT BE APPLIED AT 
             THIS NODE

 ***WARNING: DEGREE OF FREEDOM 3 HAS BEEN ELIMINATED AT NODE 60 INSTANCE Inner 
             Surface BOUNDARY CONDITION TYPE ENCASTRE MAY NOT BE APPLIED AT 
             THIS NODE

 ***WARNING: DEGREE OF FREEDOM 1 HAS BEEN ELIMINATED AT NODE 61 INSTANCE Inner 
             Surface BOUNDARY CONDITION TYPE ENCASTRE MAY NOT BE APPLIED AT 
             THIS NODE

 ***WARNING: DEGREE OF FREEDOM 2 HAS BEEN ELIMINATED AT NODE 61 INSTANCE Inner 
             Surface BOUNDARY CONDITION TYPE ENCASTRE MAY NOT BE APPLIED AT 
             THIS NODE

 ***WARNING: DEGREE OF FREEDOM 3 HAS BEEN ELIMINATED AT NODE 61 INSTANCE Inner 
             Surface BOUNDARY CONDITION TYPE ENCASTRE MAY NOT BE APPLIED AT 
             THIS NODE

 ***WARNING: DEGREE OF FREEDOM 1 HAS BEEN ELIMINATED AT NODE 62 INSTANCE Inner 
             Surface BOUNDARY CONDITION TYPE ENCASTRE MAY NOT BE APPLIED AT 
             THIS NODE

 ***WARNING: DEGREE OF FREEDOM 2 HAS BEEN ELIMINATED AT NODE 62 INSTANCE Inner 
             Surface BOUNDARY CONDITION TYPE ENCASTRE MAY NOT BE APPLIED AT 
             THIS NODE

 ***WARNING: DEGREE OF FREEDOM 3 HAS BEEN ELIMINATED AT NODE 62 INSTANCE Inner 
             Surface BOUNDARY CONDITION TYPE ENCASTRE MAY NOT BE APPLIED AT 
             THIS NODE

 ***WARNING: DEGREE OF FREEDOM 1 HAS BEEN ELIMINATED AT NODE 63 INSTANCE Inner 
             Surface BOUNDARY CONDITION TYPE ENCASTRE MAY NOT BE APPLIED AT 
             THIS NODE

 ***WARNING: DEGREE OF FREEDOM 2 HAS BEEN ELIMINATED AT NODE 63 INSTANCE Inner 
             Surface BOUNDARY CONDITION TYPE ENCASTRE MAY NOT BE APPLIED AT 
             THIS NODE

 ***WARNING: DEGREE OF FREEDOM 3 HAS BEEN ELIMINATED AT NODE 63 INSTANCE Inner 
             Surface BOUNDARY CONDITION TYPE ENCASTRE MAY NOT BE APPLIED AT 
             THIS NODE

 ***WARNING: DEGREE OF FREEDOM 1 HAS BEEN ELIMINATED AT NODE 64 INSTANCE Inner 
             Surface BOUNDARY CONDITION TYPE ENCASTRE MAY NOT BE APPLIED AT 
             THIS NODE

 ***WARNING: DEGREE OF FREEDOM 2 HAS BEEN ELIMINATED AT NODE 64 INSTANCE Inner 
             Surface BOUNDARY CONDITION TYPE ENCASTRE MAY NOT BE APPLIED AT 
             THIS NODE

 ***WARNING: DEGREE OF FREEDOM 3 HAS BEEN ELIMINATED AT NODE 64 INSTANCE Inner 
             Surface BOUNDARY CONDITION TYPE ENCASTRE MAY NOT BE APPLIED AT 
             THIS NODE

 ***WARNING: DEGREE OF FREEDOM 1 HAS BEEN ELIMINATED AT NODE 65 INSTANCE Inner 
             Surface BOUNDARY CONDITION TYPE ENCASTRE MAY NOT BE APPLIED AT 
             THIS NODE

 ***WARNING: DEGREE OF FREEDOM 2 HAS BEEN ELIMINATED AT NODE 65 INSTANCE Inner 
             Surface BOUNDARY CONDITION TYPE ENCASTRE MAY NOT BE APPLIED AT 
             THIS NODE

 ***WARNING: DEGREE OF FREEDOM 3 HAS BEEN ELIMINATED AT NODE 65 INSTANCE Inner 
             Surface BOUNDARY CONDITION TYPE ENCASTRE MAY NOT BE APPLIED AT 
             THIS NODE

 ***WARNING: DEGREE OF FREEDOM 1 HAS BEEN ELIMINATED AT NODE 66 INSTANCE Inner 
             Surface BOUNDARY CONDITION TYPE ENCASTRE MAY NOT BE APPLIED AT 
             THIS NODE

 ***WARNING: DEGREE OF FREEDOM 2 HAS BEEN ELIMINATED AT NODE 66 INSTANCE Inner 
             Surface BOUNDARY CONDITION TYPE ENCASTRE MAY NOT BE APPLIED AT 
             THIS NODE

 ***WARNING: DEGREE OF FREEDOM 3 HAS BEEN ELIMINATED AT NODE 66 INSTANCE Inner 
             Surface BOUNDARY CONDITION TYPE ENCASTRE MAY NOT BE APPLIED AT 
             THIS NODE

 ***WARNING: DEGREE OF FREEDOM 1 HAS BEEN ELIMINATED AT NODE 67 INSTANCE Inner 
             Surface BOUNDARY CONDITION TYPE ENCASTRE MAY NOT BE APPLIED AT 
             THIS NODE

 ***WARNING: DEGREE OF FREEDOM 2 HAS BEEN ELIMINATED AT NODE 67 INSTANCE Inner 
             Surface BOUNDARY CONDITION TYPE ENCASTRE MAY NOT BE APPLIED AT 
             THIS NODE

 ***WARNING: DEGREE OF FREEDOM 3 HAS BEEN ELIMINATED AT NODE 67 INSTANCE Inner 
             Surface BOUNDARY CONDITION TYPE ENCASTRE MAY NOT BE APPLIED AT 
             THIS NODE

 ***WARNING: DEGREE OF FREEDOM 1 HAS BEEN ELIMINATED AT NODE 68 INSTANCE Inner 
             Surface BOUNDARY CONDITION TYPE ENCASTRE MAY NOT BE APPLIED AT 
             THIS NODE

 ***WARNING: DEGREE OF FREEDOM 2 HAS BEEN ELIMINATED AT NODE 68 INSTANCE Inner 
             Surface BOUNDARY CONDITION TYPE ENCASTRE MAY NOT BE APPLIED AT 
             THIS NODE

 ***WARNING: DEGREE OF FREEDOM 3 HAS BEEN ELIMINATED AT NODE 68 INSTANCE Inner 
             Surface BOUNDARY CONDITION TYPE ENCASTRE MAY NOT BE APPLIED AT 
             THIS NODE

 ***WARNING: DEGREE OF FREEDOM 1 HAS BEEN ELIMINATED AT NODE 69 INSTANCE Inner 
             Surface BOUNDARY CONDITION TYPE ENCASTRE MAY NOT BE APPLIED AT 
             THIS NODE

 ***WARNING: DEGREE OF FREEDOM 2 HAS BEEN ELIMINATED AT NODE 69 INSTANCE Inner 
             Surface BOUNDARY CONDITION TYPE ENCASTRE MAY NOT BE APPLIED AT 
             THIS NODE

 ***WARNING: DEGREE OF FREEDOM 3 HAS BEEN ELIMINATED AT NODE 69 INSTANCE Inner 
             Surface BOUNDARY CONDITION TYPE ENCASTRE MAY NOT BE APPLIED AT 
             THIS NODE

 ***WARNING: DEGREE OF FREEDOM 1 HAS BEEN ELIMINATED AT NODE 70 INSTANCE Inner 
             Surface BOUNDARY CONDITION TYPE ENCASTRE MAY NOT BE APPLIED AT 
             THIS NODE

 ***WARNING: DEGREE OF FREEDOM 2 HAS BEEN ELIMINATED AT NODE 70 INSTANCE Inner 
             Surface BOUNDARY CONDITION TYPE ENCASTRE MAY NOT BE APPLIED AT 
             THIS NODE

 ***WARNING: DEGREE OF FREEDOM 3 HAS BEEN ELIMINATED AT NODE 70 INSTANCE Inner 
             Surface BOUNDARY CONDITION TYPE ENCASTRE MAY NOT BE APPLIED AT 
             THIS NODE

 ***WARNING: DEGREE OF FREEDOM 1 HAS BEEN ELIMINATED AT NODE 71 INSTANCE Inner 
             Surface BOUNDARY CONDITION TYPE ENCASTRE MAY NOT BE APPLIED AT 
             THIS NODE

 ***WARNING: DEGREE OF FREEDOM 2 HAS BEEN ELIMINATED AT NODE 71 INSTANCE Inner 
             Surface BOUNDARY CONDITION TYPE ENCASTRE MAY NOT BE APPLIED AT 
             THIS NODE

 ***WARNING: DEGREE OF FREEDOM 3 HAS BEEN ELIMINATED AT NODE 71 INSTANCE Inner 
             Surface BOUNDARY CONDITION TYPE ENCASTRE MAY NOT BE APPLIED AT 
             THIS NODE

 ***WARNING: DEGREE OF FREEDOM 1 HAS BEEN ELIMINATED AT NODE 72 INSTANCE Inner 
             Surface BOUNDARY CONDITION TYPE ENCASTRE MAY NOT BE APPLIED AT 
             THIS NODE

 ***WARNING: DEGREE OF FREEDOM 2 HAS BEEN ELIMINATED AT NODE 72 INSTANCE Inner 
             Surface BOUNDARY CONDITION TYPE ENCASTRE MAY NOT BE APPLIED AT 
             THIS NODE

 ***WARNING: DEGREE OF FREEDOM 3 HAS BEEN ELIMINATED AT NODE 72 INSTANCE Inner 
             Surface BOUNDARY CONDITION TYPE ENCASTRE MAY NOT BE APPLIED AT 
             THIS NODE

 ***WARNING: DEGREE OF FREEDOM 1 HAS BEEN ELIMINATED AT NODE 73 INSTANCE Inner 
             Surface BOUNDARY CONDITION TYPE ENCASTRE MAY NOT BE APPLIED AT 
             THIS NODE

 ***WARNING: DEGREE OF FREEDOM 2 HAS BEEN ELIMINATED AT NODE 73 INSTANCE Inner 
             Surface BOUNDARY CONDITION TYPE ENCASTRE MAY NOT BE APPLIED AT 
             THIS NODE

 ***WARNING: DEGREE OF FREEDOM 3 HAS BEEN ELIMINATED AT NODE 73 INSTANCE Inner 
             Surface BOUNDARY CONDITION TYPE ENCASTRE MAY NOT BE APPLIED AT 
             THIS NODE

 ***WARNING: DEGREE OF FREEDOM 1 HAS BEEN ELIMINATED AT NODE 74 INSTANCE Inner 
             Surface BOUNDARY CONDITION TYPE ENCASTRE MAY NOT BE APPLIED AT 
             THIS NODE

 ***WARNING: DEGREE OF FREEDOM 2 HAS BEEN ELIMINATED AT NODE 74 INSTANCE Inner 
             Surface BOUNDARY CONDITION TYPE ENCASTRE MAY NOT BE APPLIED AT 
             THIS NODE

 ***WARNING: DEGREE OF FREEDOM 3 HAS BEEN ELIMINATED AT NODE 74 INSTANCE Inner 
             Surface BOUNDARY CONDITION TYPE ENCASTRE MAY NOT BE APPLIED AT 
             THIS NODE

 ***WARNING: DEGREE OF FREEDOM 1 HAS BEEN ELIMINATED AT NODE 75 INSTANCE Inner 
             Surface BOUNDARY CONDITION TYPE ENCASTRE MAY NOT BE APPLIED AT 
             THIS NODE

 ***WARNING: DEGREE OF FREEDOM 2 HAS BEEN ELIMINATED AT NODE 75 INSTANCE Inner 
             Surface BOUNDARY CONDITION TYPE ENCASTRE MAY NOT BE APPLIED AT 
             THIS NODE

 ***WARNING: DEGREE OF FREEDOM 3 HAS BEEN ELIMINATED AT NODE 75 INSTANCE Inner 
             Surface BOUNDARY CONDITION TYPE ENCASTRE MAY NOT BE APPLIED AT 
             THIS NODE

 ***WARNING: DEGREE OF FREEDOM 1 HAS BEEN ELIMINATED AT NODE 76 INSTANCE Inner 
             Surface BOUNDARY CONDITION TYPE ENCASTRE MAY NOT BE APPLIED AT 
             THIS NODE

 ***WARNING: DEGREE OF FREEDOM 2 HAS BEEN ELIMINATED AT NODE 76 INSTANCE Inner 
             Surface BOUNDARY CONDITION TYPE ENCASTRE MAY NOT BE APPLIED AT 
             THIS NODE

 ***WARNING: DEGREE OF FREEDOM 3 HAS BEEN ELIMINATED AT NODE 76 INSTANCE Inner 
             Surface BOUNDARY CONDITION TYPE ENCASTRE MAY NOT BE APPLIED AT 
             THIS NODE

 ***WARNING: DEGREE OF FREEDOM 1 HAS BEEN ELIMINATED AT NODE 77 INSTANCE Inner 
             Surface BOUNDARY CONDITION TYPE ENCASTRE MAY NOT BE APPLIED AT 
             THIS NODE

 ***WARNING: DEGREE OF FREEDOM 2 HAS BEEN ELIMINATED AT NODE 77 INSTANCE Inner 
             Surface BOUNDARY CONDITION TYPE ENCASTRE MAY NOT BE APPLIED AT 
             THIS NODE

 ***WARNING: DEGREE OF FREEDOM 3 HAS BEEN ELIMINATED AT NODE 77 INSTANCE Inner 
             Surface BOUNDARY CONDITION TYPE ENCASTRE MAY NOT BE APPLIED AT 
             THIS NODE

 ***WARNING: DEGREE OF FREEDOM 1 HAS BEEN ELIMINATED AT NODE 78 INSTANCE Inner 
             Surface BOUNDARY CONDITION TYPE ENCASTRE MAY NOT BE APPLIED AT 
             THIS NODE

 ***WARNING: DEGREE OF FREEDOM 2 HAS BEEN ELIMINATED AT NODE 78 INSTANCE Inner 
             Surface BOUNDARY CONDITION TYPE ENCASTRE MAY NOT BE APPLIED AT 
             THIS NODE

 ***WARNING: DEGREE OF FREEDOM 3 HAS BEEN ELIMINATED AT NODE 78 INSTANCE Inner 
             Surface BOUNDARY CONDITION TYPE ENCASTRE MAY NOT BE APPLIED AT 
             THIS NODE

 ***WARNING: DEGREE OF FREEDOM 1 HAS BEEN ELIMINATED AT NODE 79 INSTANCE Inner 
             Surface BOUNDARY CONDITION TYPE ENCASTRE MAY NOT BE APPLIED AT 
             THIS NODE

 ***WARNING: DEGREE OF FREEDOM 2 HAS BEEN ELIMINATED AT NODE 79 INSTANCE Inner 
             Surface BOUNDARY CONDITION TYPE ENCASTRE MAY NOT BE APPLIED AT 
             THIS NODE

 ***WARNING: DEGREE OF FREEDOM 3 HAS BEEN ELIMINATED AT NODE 79 INSTANCE Inner 
             Surface BOUNDARY CONDITION TYPE ENCASTRE MAY NOT BE APPLIED AT 
             THIS NODE

 ***WARNING: DEGREE OF FREEDOM 1 HAS BEEN ELIMINATED AT NODE 80 INSTANCE Inner 
             Surface BOUNDARY CONDITION TYPE ENCASTRE MAY NOT BE APPLIED AT 
             THIS NODE

 ***WARNING: DEGREE OF FREEDOM 2 HAS BEEN ELIMINATED AT NODE 80 INSTANCE Inner 
             Surface BOUNDARY CONDITION TYPE ENCASTRE MAY NOT BE APPLIED AT 
             THIS NODE

 ***WARNING: DEGREE OF FREEDOM 3 HAS BEEN ELIMINATED AT NODE 80 INSTANCE Inner 
             Surface BOUNDARY CONDITION TYPE ENCASTRE MAY NOT BE APPLIED AT 
             THIS NODE

 ***WARNING: DEGREE OF FREEDOM 1 HAS BEEN ELIMINATED AT NODE 81 INSTANCE Inner 
             Surface BOUNDARY CONDITION TYPE ENCASTRE MAY NOT BE APPLIED AT 
             THIS NODE

 ***WARNING: DEGREE OF FREEDOM 2 HAS BEEN ELIMINATED AT NODE 81 INSTANCE Inner 
             Surface BOUNDARY CONDITION TYPE ENCASTRE MAY NOT BE APPLIED AT 
             THIS NODE

 ***WARNING: DEGREE OF FREEDOM 3 HAS BEEN ELIMINATED AT NODE 81 INSTANCE Inner 
             Surface BOUNDARY CONDITION TYPE ENCASTRE MAY NOT BE APPLIED AT 
             THIS NODE

 ***WARNING: DEGREE OF FREEDOM 1 HAS BEEN ELIMINATED AT NODE 82 INSTANCE Inner 
             Surface BOUNDARY CONDITION TYPE ENCASTRE MAY NOT BE APPLIED AT 
             THIS NODE

 ***WARNING: DEGREE OF FREEDOM 2 HAS BEEN ELIMINATED AT NODE 82 INSTANCE Inner 
             Surface BOUNDARY CONDITION TYPE ENCASTRE MAY NOT BE APPLIED AT 
             THIS NODE

 ***WARNING: DEGREE OF FREEDOM 3 HAS BEEN ELIMINATED AT NODE 82 INSTANCE Inner 
             Surface BOUNDARY CONDITION TYPE ENCASTRE MAY NOT BE APPLIED AT 
             THIS NODE

 ***WARNING: DEGREE OF FREEDOM 1 HAS BEEN ELIMINATED AT NODE 83 INSTANCE Inner 
             Surface BOUNDARY CONDITION TYPE ENCASTRE MAY NOT BE APPLIED AT 
             THIS NODE

 ***WARNING: DEGREE OF FREEDOM 2 HAS BEEN ELIMINATED AT NODE 83 INSTANCE Inner 
             Surface BOUNDARY CONDITION TYPE ENCASTRE MAY NOT BE APPLIED AT 
             THIS NODE

 ***WARNING: DEGREE OF FREEDOM 3 HAS BEEN ELIMINATED AT NODE 83 INSTANCE Inner 
             Surface BOUNDARY CONDITION TYPE ENCASTRE MAY NOT BE APPLIED AT 
             THIS NODE

 ***WARNING: DEGREE OF FREEDOM 1 HAS BEEN ELIMINATED AT NODE 84 INSTANCE Inner 
             Surface BOUNDARY CONDITION TYPE ENCASTRE MAY NOT BE APPLIED AT 
             THIS NODE

 ***WARNING: DEGREE OF FREEDOM 2 HAS BEEN ELIMINATED AT NODE 84 INSTANCE Inner 
             Surface BOUNDARY CONDITION TYPE ENCASTRE MAY NOT BE APPLIED AT 
             THIS NODE

 ***WARNING: DEGREE OF FREEDOM 3 HAS BEEN ELIMINATED AT NODE 84 INSTANCE Inner 
             Surface BOUNDARY CONDITION TYPE ENCASTRE MAY NOT BE APPLIED AT 
             THIS NODE

 ***WARNING: DEGREE OF FREEDOM 1 HAS BEEN ELIMINATED AT NODE 85 INSTANCE Inner 
             Surface BOUNDARY CONDITION TYPE ENCASTRE MAY NOT BE APPLIED AT 
             THIS NODE

 ***WARNING: DEGREE OF FREEDOM 2 HAS BEEN ELIMINATED AT NODE 85 INSTANCE Inner 
             Surface BOUNDARY CONDITION TYPE ENCASTRE MAY NOT BE APPLIED AT 
             THIS NODE

 ***WARNING: DEGREE OF FREEDOM 3 HAS BEEN ELIMINATED AT NODE 85 INSTANCE Inner 
             Surface BOUNDARY CONDITION TYPE ENCASTRE MAY NOT BE APPLIED AT 
             THIS NODE

 ***WARNING: DEGREE OF FREEDOM 1 HAS BEEN ELIMINATED AT NODE 86 INSTANCE Inner 
             Surface BOUNDARY CONDITION TYPE ENCASTRE MAY NOT BE APPLIED AT 
             THIS NODE

 ***WARNING: DEGREE OF FREEDOM 2 HAS BEEN ELIMINATED AT NODE 86 INSTANCE Inner 
             Surface BOUNDARY CONDITION TYPE ENCASTRE MAY NOT BE APPLIED AT 
             THIS NODE

 ***WARNING: DEGREE OF FREEDOM 3 HAS BEEN ELIMINATED AT NODE 86 INSTANCE Inner 
             Surface BOUNDARY CONDITION TYPE ENCASTRE MAY NOT BE APPLIED AT 
             THIS NODE

 ***WARNING: DEGREE OF FREEDOM 1 HAS BEEN ELIMINATED AT NODE 87 INSTANCE Inner 
             Surface BOUNDARY CONDITION TYPE ENCASTRE MAY NOT BE APPLIED AT 
             THIS NODE

 ***WARNING: DEGREE OF FREEDOM 2 HAS BEEN ELIMINATED AT NODE 87 INSTANCE Inner 
             Surface BOUNDARY CONDITION TYPE ENCASTRE MAY NOT BE APPLIED AT 
             THIS NODE

 ***WARNING: DEGREE OF FREEDOM 3 HAS BEEN ELIMINATED AT NODE 87 INSTANCE Inner 
             Surface BOUNDARY CONDITION TYPE ENCASTRE MAY NOT BE APPLIED AT 
             THIS NODE

 ***WARNING: DEGREE OF FREEDOM 1 HAS BEEN ELIMINATED AT NODE 88 INSTANCE Inner 
             Surface BOUNDARY CONDITION TYPE ENCASTRE MAY NOT BE APPLIED AT 
             THIS NODE

 ***WARNING: DEGREE OF FREEDOM 2 HAS BEEN ELIMINATED AT NODE 88 INSTANCE Inner 
             Surface BOUNDARY CONDITION TYPE ENCASTRE MAY NOT BE APPLIED AT 
             THIS NODE

 ***WARNING: DEGREE OF FREEDOM 3 HAS BEEN ELIMINATED AT NODE 88 INSTANCE Inner 
             Surface BOUNDARY CONDITION TYPE ENCASTRE MAY NOT BE APPLIED AT 
             THIS NODE

 ***WARNING: DEGREE OF FREEDOM 1 HAS BEEN ELIMINATED AT NODE 89 INSTANCE Inner 
             Surface BOUNDARY CONDITION TYPE ENCASTRE MAY NOT BE APPLIED AT 
             THIS NODE

 ***WARNING: DEGREE OF FREEDOM 2 HAS BEEN ELIMINATED AT NODE 89 INSTANCE Inner 
             Surface BOUNDARY CONDITION TYPE ENCASTRE MAY NOT BE APPLIED AT 
             THIS NODE

 ***WARNING: DEGREE OF FREEDOM 3 HAS BEEN ELIMINATED AT NODE 89 INSTANCE Inner 
             Surface BOUNDARY CONDITION TYPE ENCASTRE MAY NOT BE APPLIED AT 
             THIS NODE

 ***WARNING: DEGREE OF FREEDOM 1 HAS BEEN ELIMINATED AT NODE 90 INSTANCE Inner 
             Surface BOUNDARY CONDITION TYPE ENCASTRE MAY NOT BE APPLIED AT 
             THIS NODE

 ***WARNING: DEGREE OF FREEDOM 2 HAS BEEN ELIMINATED AT NODE 90 INSTANCE Inner 
             Surface BOUNDARY CONDITION TYPE ENCASTRE MAY NOT BE APPLIED AT 
             THIS NODE

 ***WARNING: DEGREE OF FREEDOM 3 HAS BEEN ELIMINATED AT NODE 90 INSTANCE Inner 
             Surface BOUNDARY CONDITION TYPE ENCASTRE MAY NOT BE APPLIED AT 
             THIS NODE

 ***WARNING: DEGREE OF FREEDOM 1 HAS BEEN ELIMINATED AT NODE 91 INSTANCE Inner 
             Surface BOUNDARY CONDITION TYPE ENCASTRE MAY NOT BE APPLIED AT 
             THIS NODE

 ***WARNING: DEGREE OF FREEDOM 2 HAS BEEN ELIMINATED AT NODE 91 INSTANCE Inner 
             Surface BOUNDARY CONDITION TYPE ENCASTRE MAY NOT BE APPLIED AT 
             THIS NODE

 ***WARNING: DEGREE OF FREEDOM 3 HAS BEEN ELIMINATED AT NODE 91 INSTANCE Inner 
             Surface BOUNDARY CONDITION TYPE ENCASTRE MAY NOT BE APPLIED AT 
             THIS NODE

 ***WARNING: DEGREE OF FREEDOM 1 HAS BEEN ELIMINATED AT NODE 92 INSTANCE Inner 
             Surface BOUNDARY CONDITION TYPE ENCASTRE MAY NOT BE APPLIED AT 
             THIS NODE

 ***WARNING: DEGREE OF FREEDOM 2 HAS BEEN ELIMINATED AT NODE 92 INSTANCE Inner 
             Surface BOUNDARY CONDITION TYPE ENCASTRE MAY NOT BE APPLIED AT 
             THIS NODE

 ***WARNING: DEGREE OF FREEDOM 3 HAS BEEN ELIMINATED AT NODE 92 INSTANCE Inner 
             Surface BOUNDARY CONDITION TYPE ENCASTRE MAY NOT BE APPLIED AT 
             THIS NODE

 ***WARNING: DEGREE OF FREEDOM 1 HAS BEEN ELIMINATED AT NODE 93 INSTANCE Inner 
             Surface BOUNDARY CONDITION TYPE ENCASTRE MAY NOT BE APPLIED AT 
             THIS NODE

 ***WARNING: DEGREE OF FREEDOM 2 HAS BEEN ELIMINATED AT NODE 93 INSTANCE Inner 
             Surface BOUNDARY CONDITION TYPE ENCASTRE MAY NOT BE APPLIED AT 
             THIS NODE

 ***WARNING: DEGREE OF FREEDOM 3 HAS BEEN ELIMINATED AT NODE 93 INSTANCE Inner 
             Surface BOUNDARY CONDITION TYPE ENCASTRE MAY NOT BE APPLIED AT 
             THIS NODE

 ***WARNING: DEGREE OF FREEDOM 1 HAS BEEN ELIMINATED AT NODE 94 INSTANCE Inner 
             Surface BOUNDARY CONDITION TYPE ENCASTRE MAY NOT BE APPLIED AT 
             THIS NODE

 ***WARNING: DEGREE OF FREEDOM 2 HAS BEEN ELIMINATED AT NODE 94 INSTANCE Inner 
             Surface BOUNDARY CONDITION TYPE ENCASTRE MAY NOT BE APPLIED AT 
             THIS NODE

 ***WARNING: DEGREE OF FREEDOM 3 HAS BEEN ELIMINATED AT NODE 94 INSTANCE Inner 
             Surface BOUNDARY CONDITION TYPE ENCASTRE MAY NOT BE APPLIED AT 
             THIS NODE

 ***WARNING: DEGREE OF FREEDOM 1 HAS BEEN ELIMINATED AT NODE 95 INSTANCE Inner 
             Surface BOUNDARY CONDITION TYPE ENCASTRE MAY NOT BE APPLIED AT 
             THIS NODE

 ***WARNING: DEGREE OF FREEDOM 2 HAS BEEN ELIMINATED AT NODE 95 INSTANCE Inner 
             Surface BOUNDARY CONDITION TYPE ENCASTRE MAY NOT BE APPLIED AT 
             THIS NODE

 ***WARNING: DEGREE OF FREEDOM 3 HAS BEEN ELIMINATED AT NODE 95 INSTANCE Inner 
             Surface BOUNDARY CONDITION TYPE ENCASTRE MAY NOT BE APPLIED AT 
             THIS NODE

 ***WARNING: DEGREE OF FREEDOM 1 HAS BEEN ELIMINATED AT NODE 96 INSTANCE Inner 
             Surface BOUNDARY CONDITION TYPE ENCASTRE MAY NOT BE APPLIED AT 
             THIS NODE

 ***WARNING: DEGREE OF FREEDOM 2 HAS BEEN ELIMINATED AT NODE 96 INSTANCE Inner 
             Surface BOUNDARY CONDITION TYPE ENCASTRE MAY NOT BE APPLIED AT 
             THIS NODE

 ***WARNING: DEGREE OF FREEDOM 3 HAS BEEN ELIMINATED AT NODE 96 INSTANCE Inner 
             Surface BOUNDARY CONDITION TYPE ENCASTRE MAY NOT BE APPLIED AT 
             THIS NODE

 ***WARNING: DEGREE OF FREEDOM 1 HAS BEEN ELIMINATED AT NODE 97 INSTANCE Inner 
             Surface BOUNDARY CONDITION TYPE ENCASTRE MAY NOT BE APPLIED AT 
             THIS NODE

 ***WARNING: DEGREE OF FREEDOM 2 HAS BEEN ELIMINATED AT NODE 97 INSTANCE Inner 
             Surface BOUNDARY CONDITION TYPE ENCASTRE MAY NOT BE APPLIED AT 
             THIS NODE

 ***WARNING: DEGREE OF FREEDOM 3 HAS BEEN ELIMINATED AT NODE 97 INSTANCE Inner 
             Surface BOUNDARY CONDITION TYPE ENCASTRE MAY NOT BE APPLIED AT 
             THIS NODE

 ***WARNING: DEGREE OF FREEDOM 1 HAS BEEN ELIMINATED AT NODE 98 INSTANCE Inner 
             Surface BOUNDARY CONDITION TYPE ENCASTRE MAY NOT BE APPLIED AT 
             THIS NODE

 ***WARNING: DEGREE OF FREEDOM 2 HAS BEEN ELIMINATED AT NODE 98 INSTANCE Inner 
             Surface BOUNDARY CONDITION TYPE ENCASTRE MAY NOT BE APPLIED AT 
             THIS NODE

 ***WARNING: DEGREE OF FREEDOM 3 HAS BEEN ELIMINATED AT NODE 98 INSTANCE Inner 
             Surface BOUNDARY CONDITION TYPE ENCASTRE MAY NOT BE APPLIED AT 
             THIS NODE

 ***WARNING: DEGREE OF FREEDOM 1 HAS BEEN ELIMINATED AT NODE 99 INSTANCE Inner 
             Surface BOUNDARY CONDITION TYPE ENCASTRE MAY NOT BE APPLIED AT 
             THIS NODE

 ***WARNING: DEGREE OF FREEDOM 2 HAS BEEN ELIMINATED AT NODE 99 INSTANCE Inner 
             Surface BOUNDARY CONDITION TYPE ENCASTRE MAY NOT BE APPLIED AT 
             THIS NODE

 ***WARNING: DEGREE OF FREEDOM 3 HAS BEEN ELIMINATED AT NODE 99 INSTANCE Inner 
             Surface BOUNDARY CONDITION TYPE ENCASTRE MAY NOT BE APPLIED AT 
             THIS NODE

 ***WARNING: DEGREE OF FREEDOM 1 HAS BEEN ELIMINATED AT NODE 100 INSTANCE Inner 
             Surface BOUNDARY CONDITION TYPE ENCASTRE MAY NOT BE APPLIED AT 
             THIS NODE

 ***WARNING: DEGREE OF FREEDOM 2 HAS BEEN ELIMINATED AT NODE 100 INSTANCE Inner 
             Surface BOUNDARY CONDITION TYPE ENCASTRE MAY NOT BE APPLIED AT 
             THIS NODE

 ***WARNING: DEGREE OF FREEDOM 3 HAS BEEN ELIMINATED AT NODE 100 INSTANCE Inner 
             Surface BOUNDARY CONDITION TYPE ENCASTRE MAY NOT BE APPLIED AT 
             THIS NODE

 ***WARNING: DEGREE OF FREEDOM 1 HAS BEEN ELIMINATED AT NODE 101 INSTANCE Inner 
             Surface BOUNDARY CONDITION TYPE ENCASTRE MAY NOT BE APPLIED AT 
             THIS NODE

 ***WARNING: DEGREE OF FREEDOM 2 HAS BEEN ELIMINATED AT NODE 101 INSTANCE Inner 
             Surface BOUNDARY CONDITION TYPE ENCASTRE MAY NOT BE APPLIED AT 
             THIS NODE

 ***WARNING: DEGREE OF FREEDOM 3 HAS BEEN ELIMINATED AT NODE 101 INSTANCE Inner 
             Surface BOUNDARY CONDITION TYPE ENCASTRE MAY NOT BE APPLIED AT 
             THIS NODE

 ***WARNING: DEGREE OF FREEDOM 1 HAS BEEN ELIMINATED AT NODE 102 INSTANCE Inner 
             Surface BOUNDARY CONDITION TYPE ENCASTRE MAY NOT BE APPLIED AT 
             THIS NODE

 ***WARNING: DEGREE OF FREEDOM 2 HAS BEEN ELIMINATED AT NODE 102 INSTANCE Inner 
             Surface BOUNDARY CONDITION TYPE ENCASTRE MAY NOT BE APPLIED AT 
             THIS NODE

 ***WARNING: DEGREE OF FREEDOM 3 HAS BEEN ELIMINATED AT NODE 102 INSTANCE Inner 
             Surface BOUNDARY CONDITION TYPE ENCASTRE MAY NOT BE APPLIED AT 
             THIS NODE

 ***WARNING: DEGREE OF FREEDOM 1 HAS BEEN ELIMINATED AT NODE 103 INSTANCE Inner 
             Surface BOUNDARY CONDITION TYPE ENCASTRE MAY NOT BE APPLIED AT 
             THIS NODE

 ***WARNING: DEGREE OF FREEDOM 2 HAS BEEN ELIMINATED AT NODE 103 INSTANCE Inner 
             Surface BOUNDARY CONDITION TYPE ENCASTRE MAY NOT BE APPLIED AT 
             THIS NODE

 ***WARNING: DEGREE OF FREEDOM 3 HAS BEEN ELIMINATED AT NODE 103 INSTANCE Inner 
             Surface BOUNDARY CONDITION TYPE ENCASTRE MAY NOT BE APPLIED AT 
             THIS NODE

 ***WARNING: DEGREE OF FREEDOM 1 HAS BEEN ELIMINATED AT NODE 104 INSTANCE Inner 
             Surface BOUNDARY CONDITION TYPE ENCASTRE MAY NOT BE APPLIED AT 
             THIS NODE

 ***WARNING: DEGREE OF FREEDOM 2 HAS BEEN ELIMINATED AT NODE 104 INSTANCE Inner 
             Surface BOUNDARY CONDITION TYPE ENCASTRE MAY NOT BE APPLIED AT 
             THIS NODE

 ***WARNING: DEGREE OF FREEDOM 3 HAS BEEN ELIMINATED AT NODE 104 INSTANCE Inner 
             Surface BOUNDARY CONDITION TYPE ENCASTRE MAY NOT BE APPLIED AT 
             THIS NODE

 ***WARNING: DEGREE OF FREEDOM 1 HAS BEEN ELIMINATED AT NODE 105 INSTANCE Inner 
             Surface BOUNDARY CONDITION TYPE ENCASTRE MAY NOT BE APPLIED AT 
             THIS NODE

 ***WARNING: DEGREE OF FREEDOM 2 HAS BEEN ELIMINATED AT NODE 105 INSTANCE Inner 
             Surface BOUNDARY CONDITION TYPE ENCASTRE MAY NOT BE APPLIED AT 
             THIS NODE

 ***WARNING: DEGREE OF FREEDOM 3 HAS BEEN ELIMINATED AT NODE 105 INSTANCE Inner 
             Surface BOUNDARY CONDITION TYPE ENCASTRE MAY NOT BE APPLIED AT 
             THIS NODE

 ***WARNING: DEGREE OF FREEDOM 1 HAS BEEN ELIMINATED AT NODE 106 INSTANCE Inner 
             Surface BOUNDARY CONDITION TYPE ENCASTRE MAY NOT BE APPLIED AT 
             THIS NODE

 ***WARNING: DEGREE OF FREEDOM 2 HAS BEEN ELIMINATED AT NODE 106 INSTANCE Inner 
             Surface BOUNDARY CONDITION TYPE ENCASTRE MAY NOT BE APPLIED AT 
             THIS NODE

 ***WARNING: DEGREE OF FREEDOM 3 HAS BEEN ELIMINATED AT NODE 106 INSTANCE Inner 
             Surface BOUNDARY CONDITION TYPE ENCASTRE MAY NOT BE APPLIED AT 
             THIS NODE

 ***WARNING: DEGREE OF FREEDOM 1 HAS BEEN ELIMINATED AT NODE 107 INSTANCE Inner 
             Surface BOUNDARY CONDITION TYPE ENCASTRE MAY NOT BE APPLIED AT 
             THIS NODE

 ***WARNING: DEGREE OF FREEDOM 2 HAS BEEN ELIMINATED AT NODE 107 INSTANCE Inner 
             Surface BOUNDARY CONDITION TYPE ENCASTRE MAY NOT BE APPLIED AT 
             THIS NODE

 ***WARNING: DEGREE OF FREEDOM 3 HAS BEEN ELIMINATED AT NODE 107 INSTANCE Inner 
             Surface BOUNDARY CONDITION TYPE ENCASTRE MAY NOT BE APPLIED AT 
             THIS NODE

 ***WARNING: DEGREE OF FREEDOM 1 HAS BEEN ELIMINATED AT NODE 108 INSTANCE Inner 
             Surface BOUNDARY CONDITION TYPE ENCASTRE MAY NOT BE APPLIED AT 
             THIS NODE

 ***WARNING: DEGREE OF FREEDOM 2 HAS BEEN ELIMINATED AT NODE 108 INSTANCE Inner 
             Surface BOUNDARY CONDITION TYPE ENCASTRE MAY NOT BE APPLIED AT 
             THIS NODE

[...]
             THIS NODE

 ***WARNING: DEGREE OF FREEDOM 2 HAS BEEN ELIMINATED AT NODE 264 INSTANCE Inner 
             Surface BOUNDARY CONDITION TYPE ENCASTRE MAY NOT BE APPLIED AT 
             THIS NODE

 ***WARNING: DEGREE OF FREEDOM 3 HAS BEEN ELIMINATED AT NODE 264 INSTANCE Inner 
             Surface BOUNDARY CONDITION TYPE ENCASTRE MAY NOT BE APPLIED AT 
             THIS NODE

 ***WARNING: DEGREE OF FREEDOM 1 HAS BEEN ELIMINATED AT NODE 265 INSTANCE Inner 
             Surface BOUNDARY CONDITION TYPE ENCASTRE MAY NOT BE APPLIED AT 
             THIS NODE

 ***WARNING: DEGREE OF FREEDOM 2 HAS BEEN ELIMINATED AT NODE 265 INSTANCE Inner 
             Surface BOUNDARY CONDITION TYPE ENCASTRE MAY NOT BE APPLIED AT 
             THIS NODE

 ***WARNING: DEGREE OF FREEDOM 3 HAS BEEN ELIMINATED AT NODE 265 INSTANCE Inner 
             Surface BOUNDARY CONDITION TYPE ENCASTRE MAY NOT BE APPLIED AT 
             THIS NODE

 ***WARNING: DEGREE OF FREEDOM 1 HAS BEEN ELIMINATED AT NODE 266 INSTANCE Inner 
             Surface BOUNDARY CONDITION TYPE ENCASTRE MAY NOT BE APPLIED AT 
             THIS NODE

 ***WARNING: DEGREE OF FREEDOM 2 HAS BEEN ELIMINATED AT NODE 266 INSTANCE Inner 
             Surface BOUNDARY CONDITION TYPE ENCASTRE MAY NOT BE APPLIED AT 
             THIS NODE

 ***WARNING: DEGREE OF FREEDOM 3 HAS BEEN ELIMINATED AT NODE 266 INSTANCE Inner 
             Surface BOUNDARY CONDITION TYPE ENCASTRE MAY NOT BE APPLIED AT 
             THIS NODE

 ***WARNING: DEGREE OF FREEDOM 1 HAS BEEN ELIMINATED AT NODE 267 INSTANCE Inner 
             Surface BOUNDARY CONDITION TYPE ENCASTRE MAY NOT BE APPLIED AT 
             THIS NODE

 ***WARNING: DEGREE OF FREEDOM 2 HAS BEEN ELIMINATED AT NODE 267 INSTANCE Inner 
             Surface BOUNDARY CONDITION TYPE ENCASTRE MAY NOT BE APPLIED AT 
             THIS NODE

 ***WARNING: DEGREE OF FREEDOM 3 HAS BEEN ELIMINATED AT NODE 267 INSTANCE Inner 
             Surface BOUNDARY CONDITION TYPE ENCASTRE MAY NOT BE APPLIED AT 
             THIS NODE

 ***WARNING: DEGREE OF FREEDOM 1 HAS BEEN ELIMINATED AT NODE 268 INSTANCE Inner 
             Surface BOUNDARY CONDITION TYPE ENCASTRE MAY NOT BE APPLIED AT 
             THIS NODE

 ***WARNING: DEGREE OF FREEDOM 2 HAS BEEN ELIMINATED AT NODE 268 INSTANCE Inner 
             Surface BOUNDARY CONDITION TYPE ENCASTRE MAY NOT BE APPLIED AT 
             THIS NODE

 ***WARNING: DEGREE OF FREEDOM 3 HAS BEEN ELIMINATED AT NODE 268 INSTANCE Inner 
             Surface BOUNDARY CONDITION TYPE ENCASTRE MAY NOT BE APPLIED AT 
             THIS NODE

 ***WARNING: DEGREE OF FREEDOM 1 HAS BEEN ELIMINATED AT NODE 269 INSTANCE Inner 
             Surface BOUNDARY CONDITION TYPE ENCASTRE MAY NOT BE APPLIED AT 
             THIS NODE

 ***WARNING: DEGREE OF FREEDOM 2 HAS BEEN ELIMINATED AT NODE 269 INSTANCE Inner 
             Surface BOUNDARY CONDITION TYPE ENCASTRE MAY NOT BE APPLIED AT 
             THIS NODE

 ***WARNING: DEGREE OF FREEDOM 3 HAS BEEN ELIMINATED AT NODE 269 INSTANCE Inner 
             Surface BOUNDARY CONDITION TYPE ENCASTRE MAY NOT BE APPLIED AT 
             THIS NODE

 ***WARNING: DEGREE OF FREEDOM 1 HAS BEEN ELIMINATED AT NODE 270 INSTANCE Inner 
             Surface BOUNDARY CONDITION TYPE ENCASTRE MAY NOT BE APPLIED AT 
             THIS NODE

 ***WARNING: DEGREE OF FREEDOM 2 HAS BEEN ELIMINATED AT NODE 270 INSTANCE Inner 
             Surface BOUNDARY CONDITION TYPE ENCASTRE MAY NOT BE APPLIED AT 
             THIS NODE

 ***WARNING: DEGREE OF FREEDOM 3 HAS BEEN ELIMINATED AT NODE 270 INSTANCE Inner 
             Surface BOUNDARY CONDITION TYPE ENCASTRE MAY NOT BE APPLIED AT 
             THIS NODE

 ***WARNING: DEGREE OF FREEDOM 1 HAS BEEN ELIMINATED AT NODE 271 INSTANCE Inner 
             Surface BOUNDARY CONDITION TYPE ENCASTRE MAY NOT BE APPLIED AT 
             THIS NODE

 ***WARNING: DEGREE OF FREEDOM 2 HAS BEEN ELIMINATED AT NODE 271 INSTANCE Inner 
             Surface BOUNDARY CONDITION TYPE ENCASTRE MAY NOT BE APPLIED AT 
             THIS NODE

 ***WARNING: DEGREE OF FREEDOM 3 HAS BEEN ELIMINATED AT NODE 271 INSTANCE Inner 
             Surface BOUNDARY CONDITION TYPE ENCASTRE MAY NOT BE APPLIED AT 
             THIS NODE

 ***WARNING: DEGREE OF FREEDOM 1 HAS BEEN ELIMINATED AT NODE 272 INSTANCE Inner 
             Surface BOUNDARY CONDITION TYPE ENCASTRE MAY NOT BE APPLIED AT 
             THIS NODE

 ***WARNING: DEGREE OF FREEDOM 2 HAS BEEN ELIMINATED AT NODE 272 INSTANCE Inner 
             Surface BOUNDARY CONDITION TYPE ENCASTRE MAY NOT BE APPLIED AT 
             THIS NODE

 ***WARNING: DEGREE OF FREEDOM 3 HAS BEEN ELIMINATED AT NODE 272 INSTANCE Inner 
             Surface BOUNDARY CONDITION TYPE ENCASTRE MAY NOT BE APPLIED AT 
             THIS NODE

 ***WARNING: DEGREE OF FREEDOM 1 HAS BEEN ELIMINATED AT NODE 273 INSTANCE Inner 
             Surface BOUNDARY CONDITION TYPE ENCASTRE MAY NOT BE APPLIED AT 
             THIS NODE

 ***WARNING: DEGREE OF FREEDOM 2 HAS BEEN ELIMINATED AT NODE 273 INSTANCE Inner 
             Surface BOUNDARY CONDITION TYPE ENCASTRE MAY NOT BE APPLIED AT 
             THIS NODE

 ***WARNING: DEGREE OF FREEDOM 3 HAS BEEN ELIMINATED AT NODE 273 INSTANCE Inner 
             Surface BOUNDARY CONDITION TYPE ENCASTRE MAY NOT BE APPLIED AT 
             THIS NODE

 ***WARNING: DEGREE OF FREEDOM 1 HAS BEEN ELIMINATED AT NODE 274 INSTANCE Inner 
             Surface BOUNDARY CONDITION TYPE ENCASTRE MAY NOT BE APPLIED AT 
             THIS NODE

 ***WARNING: DEGREE OF FREEDOM 2 HAS BEEN ELIMINATED AT NODE 274 INSTANCE Inner 
             Surface BOUNDARY CONDITION TYPE ENCASTRE MAY NOT BE APPLIED AT 
             THIS NODE

 ***WARNING: DEGREE OF FREEDOM 3 HAS BEEN ELIMINATED AT NODE 274 INSTANCE Inner 
             Surface BOUNDARY CONDITION TYPE ENCASTRE MAY NOT BE APPLIED AT 
             THIS NODE

 ***WARNING: DEGREE OF FREEDOM 1 HAS BEEN ELIMINATED AT NODE 275 INSTANCE Inner 
             Surface BOUNDARY CONDITION TYPE ENCASTRE MAY NOT BE APPLIED AT 
             THIS NODE

 ***WARNING: DEGREE OF FREEDOM 2 HAS BEEN ELIMINATED AT NODE 275 INSTANCE Inner 
             Surface BOUNDARY CONDITION TYPE ENCASTRE MAY NOT BE APPLIED AT 
             THIS NODE

 ***WARNING: DEGREE OF FREEDOM 3 HAS BEEN ELIMINATED AT NODE 275 INSTANCE Inner 
             Surface BOUNDARY CONDITION TYPE ENCASTRE MAY NOT BE APPLIED AT 
             THIS NODE

 ***WARNING: DEGREE OF FREEDOM 1 HAS BEEN ELIMINATED AT NODE 276 INSTANCE Inner 
             Surface BOUNDARY CONDITION TYPE ENCASTRE MAY NOT BE APPLIED AT 
             THIS NODE

 ***WARNING: DEGREE OF FREEDOM 2 HAS BEEN ELIMINATED AT NODE 276 INSTANCE Inner 
             Surface BOUNDARY CONDITION TYPE ENCASTRE MAY NOT BE APPLIED AT 
             THIS NODE

 ***WARNING: DEGREE OF FREEDOM 3 HAS BEEN ELIMINATED AT NODE 276 INSTANCE Inner 
             Surface BOUNDARY CONDITION TYPE ENCASTRE MAY NOT BE APPLIED AT 
             THIS NODE

 ***WARNING: DEGREE OF FREEDOM 1 HAS BEEN ELIMINATED AT NODE 277 INSTANCE Inner 
             Surface BOUNDARY CONDITION TYPE ENCASTRE MAY NOT BE APPLIED AT 
             THIS NODE

 ***WARNING: DEGREE OF FREEDOM 2 HAS BEEN ELIMINATED AT NODE 277 INSTANCE Inner 
             Surface BOUNDARY CONDITION TYPE ENCASTRE MAY NOT BE APPLIED AT 
             THIS NODE

 ***WARNING: DEGREE OF FREEDOM 3 HAS BEEN ELIMINATED AT NODE 277 INSTANCE Inner 
             Surface BOUNDARY CONDITION TYPE ENCASTRE MAY NOT BE APPLIED AT 
             THIS NODE

 ***WARNING: DEGREE OF FREEDOM 1 HAS BEEN ELIMINATED AT NODE 278 INSTANCE Inner 
             Surface BOUNDARY CONDITION TYPE ENCASTRE MAY NOT BE APPLIED AT 
             THIS NODE

 ***WARNING: DEGREE OF FREEDOM 2 HAS BEEN ELIMINATED AT NODE 278 INSTANCE Inner 
             Surface BOUNDARY CONDITION TYPE ENCASTRE MAY NOT BE APPLIED AT 
             THIS NODE

 ***WARNING: DEGREE OF FREEDOM 3 HAS BEEN ELIMINATED AT NODE 278 INSTANCE Inner 
             Surface BOUNDARY CONDITION TYPE ENCASTRE MAY NOT BE APPLIED AT 
             THIS NODE

 ***WARNING: DEGREE OF FREEDOM 1 HAS BEEN ELIMINATED AT NODE 279 INSTANCE Inner 
             Surface BOUNDARY CONDITION TYPE ENCASTRE MAY NOT BE APPLIED AT 
             THIS NODE

 ***WARNING: DEGREE OF FREEDOM 2 HAS BEEN ELIMINATED AT NODE 279 INSTANCE Inner 
             Surface BOUNDARY CONDITION TYPE ENCASTRE MAY NOT BE APPLIED AT 
             THIS NODE

 ***WARNING: DEGREE OF FREEDOM 3 HAS BEEN ELIMINATED AT NODE 279 INSTANCE Inner 
             Surface BOUNDARY CONDITION TYPE ENCASTRE MAY NOT BE APPLIED AT 
             THIS NODE

 ***WARNING: DEGREE OF FREEDOM 1 HAS BEEN ELIMINATED AT NODE 280 INSTANCE Inner 
             Surface BOUNDARY CONDITION TYPE ENCASTRE MAY NOT BE APPLIED AT 
             THIS NODE

 ***WARNING: DEGREE OF FREEDOM 2 HAS BEEN ELIMINATED AT NODE 280 INSTANCE Inner 
             Surface BOUNDARY CONDITION TYPE ENCASTRE MAY NOT BE APPLIED AT 
             THIS NODE

 ***WARNING: DEGREE OF FREEDOM 3 HAS BEEN ELIMINATED AT NODE 280 INSTANCE Inner 
             Surface BOUNDARY CONDITION TYPE ENCASTRE MAY NOT BE APPLIED AT 
             THIS NODE

 ***WARNING: DEGREE OF FREEDOM 1 HAS BEEN ELIMINATED AT NODE 281 INSTANCE Inner 
             Surface BOUNDARY CONDITION TYPE ENCASTRE MAY NOT BE APPLIED AT 
             THIS NODE

 ***WARNING: DEGREE OF FREEDOM 2 HAS BEEN ELIMINATED AT NODE 281 INSTANCE Inner 
             Surface BOUNDARY CONDITION TYPE ENCASTRE MAY NOT BE APPLIED AT 
             THIS NODE

 ***WARNING: DEGREE OF FREEDOM 3 HAS BEEN ELIMINATED AT NODE 281 INSTANCE Inner 
             Surface BOUNDARY CONDITION TYPE ENCASTRE MAY NOT BE APPLIED AT 
             THIS NODE

 ***WARNING: DEGREE OF FREEDOM 1 HAS BEEN ELIMINATED AT NODE 282 INSTANCE Inner 
             Surface BOUNDARY CONDITION TYPE ENCASTRE MAY NOT BE APPLIED AT 
             THIS NODE

 ***WARNING: DEGREE OF FREEDOM 2 HAS BEEN ELIMINATED AT NODE 282 INSTANCE Inner 
             Surface BOUNDARY CONDITION TYPE ENCASTRE MAY NOT BE APPLIED AT 
             THIS NODE

 ***WARNING: DEGREE OF FREEDOM 3 HAS BEEN ELIMINATED AT NODE 282 INSTANCE Inner 
             Surface BOUNDARY CONDITION TYPE ENCASTRE MAY NOT BE APPLIED AT 
             THIS NODE

 ***WARNING: DEGREE OF FREEDOM 1 HAS BEEN ELIMINATED AT NODE 283 INSTANCE Inner 
             Surface BOUNDARY CONDITION TYPE ENCASTRE MAY NOT BE APPLIED AT 
             THIS NODE

 ***WARNING: DEGREE OF FREEDOM 2 HAS BEEN ELIMINATED AT NODE 283 INSTANCE Inner 
             Surface BOUNDARY CONDITION TYPE ENCASTRE MAY NOT BE APPLIED AT 
             THIS NODE

 ***WARNING: DEGREE OF FREEDOM 3 HAS BEEN ELIMINATED AT NODE 283 INSTANCE Inner 
             Surface BOUNDARY CONDITION TYPE ENCASTRE MAY NOT BE APPLIED AT 
             THIS NODE

 ***WARNING: DEGREE OF FREEDOM 1 HAS BEEN ELIMINATED AT NODE 284 INSTANCE Inner 
             Surface BOUNDARY CONDITION TYPE ENCASTRE MAY NOT BE APPLIED AT 
             THIS NODE

 ***WARNING: DEGREE OF FREEDOM 2 HAS BEEN ELIMINATED AT NODE 284 INSTANCE Inner 
             Surface BOUNDARY CONDITION TYPE ENCASTRE MAY NOT BE APPLIED AT 
             THIS NODE

 ***WARNING: DEGREE OF FREEDOM 3 HAS BEEN ELIMINATED AT NODE 284 INSTANCE Inner 
             Surface BOUNDARY CONDITION TYPE ENCASTRE MAY NOT BE APPLIED AT 
             THIS NODE

 ***WARNING: DEGREE OF FREEDOM 1 HAS BEEN ELIMINATED AT NODE 285 INSTANCE Inner 
             Surface BOUNDARY CONDITION TYPE ENCASTRE MAY NOT BE APPLIED AT 
             THIS NODE

 ***WARNING: DEGREE OF FREEDOM 2 HAS BEEN ELIMINATED AT NODE 285 INSTANCE Inner 
             Surface BOUNDARY CONDITION TYPE ENCASTRE MAY NOT BE APPLIED AT 
             THIS NODE

 ***WARNING: DEGREE OF FREEDOM 3 HAS BEEN ELIMINATED AT NODE 285 INSTANCE Inner 
             Surface BOUNDARY CONDITION TYPE ENCASTRE MAY NOT BE APPLIED AT 
             THIS NODE

 ***WARNING: DEGREE OF FREEDOM 1 HAS BEEN ELIMINATED AT NODE 286 INSTANCE Inner 
             Surface BOUNDARY CONDITION TYPE ENCASTRE MAY NOT BE APPLIED AT 
             THIS NODE

 ***WARNING: DEGREE OF FREEDOM 2 HAS BEEN ELIMINATED AT NODE 286 INSTANCE Inner 
             Surface BOUNDARY CONDITION TYPE ENCASTRE MAY NOT BE APPLIED AT 
             THIS NODE

 ***WARNING: DEGREE OF FREEDOM 3 HAS BEEN ELIMINATED AT NODE 286 INSTANCE Inner 
             Surface BOUNDARY CONDITION TYPE ENCASTRE MAY NOT BE APPLIED AT 
             THIS NODE

 ***WARNING: DEGREE OF FREEDOM 1 HAS BEEN ELIMINATED AT NODE 287 INSTANCE Inner 
             Surface BOUNDARY CONDITION TYPE ENCASTRE MAY NOT BE APPLIED AT 
             THIS NODE

 ***WARNING: DEGREE OF FREEDOM 2 HAS BEEN ELIMINATED AT NODE 287 INSTANCE Inner 
             Surface BOUNDARY CONDITION TYPE ENCASTRE MAY NOT BE APPLIED AT 
             THIS NODE

 ***WARNING: DEGREE OF FREEDOM 3 HAS BEEN ELIMINATED AT NODE 287 INSTANCE Inner 
             Surface BOUNDARY CONDITION TYPE ENCASTRE MAY NOT BE APPLIED AT 
             THIS NODE

 ***WARNING: DEGREE OF FREEDOM 1 HAS BEEN ELIMINATED AT NODE 288 INSTANCE Inner 
             Surface BOUNDARY CONDITION TYPE ENCASTRE MAY NOT BE APPLIED AT 
             THIS NODE

 ***WARNING: DEGREE OF FREEDOM 2 HAS BEEN ELIMINATED AT NODE 288 INSTANCE Inner 
             Surface BOUNDARY CONDITION TYPE ENCASTRE MAY NOT BE APPLIED AT 
             THIS NODE

 ***WARNING: DEGREE OF FREEDOM 3 HAS BEEN ELIMINATED AT NODE 288 INSTANCE Inner 
             Surface BOUNDARY CONDITION TYPE ENCASTRE MAY NOT BE APPLIED AT 
             THIS NODE

 ***WARNING: DEGREE OF FREEDOM 1 HAS BEEN ELIMINATED AT NODE 289 INSTANCE Inner 
             Surface BOUNDARY CONDITION TYPE ENCASTRE MAY NOT BE APPLIED AT 
             THIS NODE

 ***WARNING: DEGREE OF FREEDOM 2 HAS BEEN ELIMINATED AT NODE 289 INSTANCE Inner 
             Surface BOUNDARY CONDITION TYPE ENCASTRE MAY NOT BE APPLIED AT 
             THIS NODE

 ***WARNING: DEGREE OF FREEDOM 3 HAS BEEN ELIMINATED AT NODE 289 INSTANCE Inner 
             Surface BOUNDARY CONDITION TYPE ENCASTRE MAY NOT BE APPLIED AT 
             THIS NODE

 ***WARNING: DEGREE OF FREEDOM 1 HAS BEEN ELIMINATED AT NODE 290 INSTANCE Inner 
             Surface BOUNDARY CONDITION TYPE ENCASTRE MAY NOT BE APPLIED AT 
             THIS NODE

 ***WARNING: DEGREE OF FREEDOM 2 HAS BEEN ELIMINATED AT NODE 290 INSTANCE Inner 
             Surface BOUNDARY CONDITION TYPE ENCASTRE MAY NOT BE APPLIED AT 
             THIS NODE

 ***WARNING: DEGREE OF FREEDOM 3 HAS BEEN ELIMINATED AT NODE 290 INSTANCE Inner 
             Surface BOUNDARY CONDITION TYPE ENCASTRE MAY NOT BE APPLIED AT 
             THIS NODE

 ***WARNING: 264 nodes have dof on which incorrect boundary conditions may have 
             been specified. The nodes have been identified in node set 
             WarnNodeBCIncorrectDof.



                            P R O B L E M   S I Z E


          NUMBER OF ELEMENTS IS                                 65630
          NUMBER OF ELEMENTS DEFINED BY THE USER AND *TIE       65628
          NUMBER OF NODES IS                                    76858
          NUMBER OF NODES DEFINED BY THE USER                   76858
          TOTAL NUMBER OF VARIABLES IN THE MODEL               230580
          (DEGREES OF FREEDOM PLUS MAX NO. OF ANY LAGRANGE MULTIPLIER
           VARIABLES. INCLUDE *PRINT,SOLVE=YES TO GET THE ACTUAL NUMBER.)



                              END OF USER INPUT PROCESSING



     JOB TIME SUMMARY
       USER TIME (SEC)      =      1.6    
       SYSTEM TIME (SEC)    =     0.20    
       TOTAL CPU TIME (SEC) =      1.8    
       WALLCLOCK TIME (SEC) =            2
1

   Abaqus 2023                                  Date 18-Jul-2024   Time 11:33:46
   For use by TEXAS A_M UNIVERSITY SYSTEM under license from Dassault Systemes or its subsidiary.

                                                                                               STEP    1  INCREMENT    1
                                                                                          TIME COMPLETED IN THIS STEP   0.00    


                        S T E P       1     S T A T I C   A N A L Y S I S


                                                                                          

     AUTOMATIC TIME CONTROL WITH -
          A SUGGESTED INITIAL TIME INCREMENT OF                0.100    
          AND A TOTAL TIME PERIOD OF                            1.00    
          THE MINIMUM TIME INCREMENT ALLOWED IS                1.000E-05
          THE MAXIMUM TIME INCREMENT ALLOWED IS                 1.00    

     LINEAR EQUATION SOLVER TYPE         DIRECT SPARSE
  
                   M E M O R Y   E S T I M A T E
  
 PROCESS      FLOATING PT       MINIMUM MEMORY        MEMORY TO
              OPERATIONS           REQUIRED          MINIMIZE I/O
             PER ITERATION           (MB)               (MB)
  
     1          1.01E+11              179               1353
  
 NOTE:
      (1) SINCE ABAQUS DOES NOT PRE-ALLOCATE MEMORY AND ONLY ALLOCATES MEMORY AS NEEDED DURING THE ANALYSIS,
          THE MEMORY REQUIREMENT PRINTED HERE CAN ONLY BE VIEWED AS A GENERAL GUIDELINE BASED ON THE BEST
          KNOWLEDGE AVAILABLE AT THE BEGINNING OF A STEP BEFORE THE SOLUTION PROCESS HAS BEGUN.
      (2) THE ESTIMATE IS NORMALLY UPDATED AT THE BEGINNING OF EVERY STEP. IT IS THE MAXIMUM VALUE OF THE
          ESTIMATE FROM THE CURRENT STEP TO THE LAST STEP OF THE ANALYSIS, WITH UNSYMMETRIC SOLUTION TAKEN
          INTO ACCOUNT IF APPLICABLE. 
      (3) SINCE THE ESTIMATE IS BASED ON THE ACTIVE DEGREES OF FREEDOM IN THE FIRST ITERATION OF THE 
          CURRENT STEP, THE MEMORY ESTIMATE MIGHT BE SIGNIFICANTLY DIFFERENT THAN ACTUAL USAGE FOR 
          PROBLEMS WITH SUBSTANTIAL CHANGES IN ACTIVE DEGREES OF FREEDOM BETWEEN STEPS (OR EVEN WITHIN
          THE SAME STEP). EXAMPLES ARE: PROBLEMS WITH SIGNIFICANT CONTACT CHANGES, PROBLEMS WITH MODEL
          CHANGE, PROBLEMS WITH BOTH STATIC STEP AND STEADY STATE DYNAMIC PROCEDURES WHERE ACOUSTIC 
          ELEMENTS WILL ONLY BE ACTIVATED IN THE STEADY STATE DYNAMIC STEPS.
      (4) FOR MULTI-PROCESS EXECUTION, THE ESTIMATED VALUE OF FLOATING POINT OPERATIONS FOR EACH PROCESS
          IS BASED ON AN INITIAL SCHEDULING OF OPERATIONS AND MIGHT NOT REFLECT THE ACTUAL FLOATING 
          POINT OPERATIONS COMPLETED ON EACH PROCESS. OPERATIONS ARE DYNAMICALLY BALANCED DURING EXECUTION, 
          SO THE ACTUAL BALANCE OF OPERATIONS BETWEEN PROCESSES IS EXPECTED TO BE BETTER THAN THE ESTIMATE
          PRINTED HERE.
      (5) THE UPPER LIMIT OF MEMORY THAT CAN BE ALLOCATED BY ABAQUS WILL IN GENERAL DEPEND ON THE VALUE OF
          THE "MEMORY" PARAMETER AND THE AMOUNT OF PHYSICAL MEMORY AVAILABLE ON THE MACHINE. PLEASE SEE
          THE "ABAQUS ANALYSIS USER'S MANUAL" FOR MORE DETAILS. THE ACTUAL USAGE OF MEMORY AND OF DISK
          SPACE FOR SCRATCH DATA WILL DEPEND ON THIS UPPER LIMIT AS WELL AS THE MEMORY REQUIRED TO MINIMIZE
          I/O. IF THE MEMORY UPPER LIMIT IS GREATER THAN THE MEMORY REQUIRED TO MINIMIZE I/O, THEN THE ACTUAL
          MEMORY USAGE WILL BE CLOSE TO THE ESTIMATED "MEMORY TO MINIMIZE I/O" VALUE, AND THE SCRATCH DISK
          USAGE WILL BE CLOSE-TO-ZERO; OTHERWISE, THE ACTUAL MEMORY USED WILL BE CLOSE TO THE PREVIOUSLY
          MENTIONED MEMORY LIMIT, AND THE SCRATCH DISK USAGE WILL BE ROUGHLY PROPORTIONAL TO THE DIFFERENCE
          BETWEEN THE ESTIMATED "MEMORY TO MINIMIZE I/O" AND THE MEMORY UPPER LIMIT. HOWEVER ACCURATE
          ESTIMATE OF THE SCRATCH DISK SPACE IS NOT POSSIBLE.
      (6) USING "*RESTART, WRITE" CAN GENERATE A LARGE AMOUNT OF DATA WRITTEN IN THE WORK DIRECTORY.


          THE ANALYSIS HAS BEEN COMPLETED



                              ANALYSIS COMPLETE
                              WITH    811 WARNING MESSAGES ON THE DAT FILE



     JOB TIME SUMMARY
       USER TIME (SEC)      =      16.    
       SYSTEM TIME (SEC)    =     0.70    
       TOTAL CPU TIME (SEC) =      17.    
       WALLCLOCK TIME (SEC) =           17
