*Heading
** Job name: Job-1 Model name: Model-1
** Generated by: Abaqus/CAE 2023
*Preprint, echo=NO, model=NO, history=NO, contact=NO
**
** PARTS
**
*Part, name=Flexure-Outer-Cut
*End Part
**  
*Part, name=Inner-Surface
*End Part
**  
*Part, name=Outer-Surface
*End Part
**  
**
** ASSEMBLY
**
*Assembly, name=Assembly
**  
*Instance, name="Inner Surface", part=Inner-Surface
*Node
      1,          -1., -0.288450003,        0.375
      2,          -1., -0.288450003,           0.
      3,           1., -0.288450003,           0.
      4,           1., -0.288450003,        0.375
      5,          -1.,  0.288450003,           0.
      6,          -1.,  0.288450003,        0.375
      7,           1.,  0.288450003,        0.375
      8,           1.,  0.288450003,           0.
      9,   1.04077053,           0.,           0.
     10,   1.04077053,           0.,        0.375
     11,          -1., -0.288450003,       0.1875
     12, -0.923502147, -0.479944974,           0.
     13, -0.810751319, -0.652599216,           0.
     14, -0.666173577, -0.799634993,           0.
     15, -0.495444566, -0.915280342,           0.
     16, -0.305266351, -0.994995415,           0.
     17, -0.103104606,  -1.03565097,           0.
     18,  0.103104606,  -1.03565097,           0.
     19,  0.305266351, -0.994995415,           0.
     20,  0.495444566, -0.915280342,           0.
** ... 79 like lines cut
*Element, type=R3D4
 1,  1, 11, 71, 36
 2, 11,  2, 12, 71
 3, 36, 71, 72, 35
 4, 71, 12, 13, 72
 5, 35, 72, 73, 34
 6, 72, 13, 14, 73
 7, 34, 73, 74, 33
 8, 73, 14, 15, 74
 9, 33, 74, 75, 32
10, 74, 15, 16, 75
11, 32, 75, 76, 31
12, 75, 16, 17, 76
13, 31, 76, 77, 30
14, 76, 17, 18, 77
15, 30, 77, 78, 29
16, 77, 18, 19, 78
17, 29, 78, 79, 28
18, 78, 19, 20, 79
19, 28, 79, 80, 27
20, 79, 20, 21, 80
** ... 46 like lines cut
*Node
    100,           0.,           0.,           0.
*Nset, nset="Inner Surface-RefPt_", internal
100, 
*Elset, elset="Inner Surface", generate
  1,  66,   1
*End Instance
**  
*Instance, name="Outer Surface", part=Outer-Surface
*Node
      1,   2.30626512,  -0.96495688,           0.
      2,   2.30626512,  -0.96495688,        0.375
      3,  -2.47911954,  0.322438776,        0.375
      4,  -2.47911954,  0.322438776,           0.
      5,   2.47911954, -0.322438776,        0.375
      6,   2.47911954, -0.322438776,           0.
      7,          2.5,           0.,           0.
      8,  -2.30626512,   0.96495688,           0.
      9,          2.5,           0.,        0.375
     10,  -2.30626512,   0.96495688,        0.375
     11,   2.41481471, -0.647046983,        0.375
     12,   2.41481471, -0.647046983,           0.
     13,  -2.41481471,  0.647046983,        0.375
     14,  -2.41481471,  0.647046983,           0.
     15,   2.16087604,  -1.25722492,        0.375
     16,   1.97864568,  -1.52805805,        0.375
     17,   1.76268053,  -1.77283883,        0.375
     18,   1.51666284,  -1.98739374,        0.375
     19,   1.24478698,  -2.16806483,        0.375
     20,   0.95168829,  -2.31177187,        0.375
** ... 76 like lines cut
*Element, type=R3D4
 1,  1,  2, 15, 56
 2, 56, 15, 16, 55
 3, 55, 16, 17, 54
 4, 54, 17, 18, 53
 5, 53, 18, 19, 52
 6, 52, 19, 20, 51
 7, 51, 20, 21, 50
 8, 50, 21, 22, 49
 9, 49, 22, 23, 48
10, 48, 23, 24, 47
11, 47, 24, 25, 46
12, 46, 25, 26, 45
13, 45, 26, 27, 44
14, 44, 27, 28, 43
15, 43, 28, 29, 42
16, 42, 29, 30, 41
17, 41, 30, 31, 40
18, 40, 31, 32, 39
19, 39, 32, 33, 38
20, 38, 33, 34, 37
** ... 28 like lines cut
*Node
     97,           0.,           0.,       0.1875
*Nset, nset="Outer Surface-RefPt_", internal
97, 
*Elset, elset="Outer Surface", generate
  1,  48,   1
*End Instance
**  
*Instance, name=Flexure-Outer-Cut-1, part=Flexure-Outer-Cut
*Node
      1,  -2.30626512,   0.96495688,        0.375
      2,  -2.41481471,  0.647046983,        0.375
      3,  -2.47911954,  0.322438776,        0.375
      4,           1.,  0.288450003,        0.375
      5,           1., -0.288450003,        0.375
      6,  -2.41481471,  0.647046983,           0.
      7,  -2.30626512,   0.96495688,           0.
      8,           1., -0.288450003,           0.
      9,           1.,  0.288450003,           0.
     10,  -2.47911954,  0.322438776,           0.
     11,   2.47911954, -0.322438776,           0.
     12,   2.41481471, -0.647046983,           0.
     13,   2.30626512,  -0.96495688,           0.
     14,          -1.,  0.288450003,           0.
     15,          -1., -0.288450003,           0.
     16,   2.41481471, -0.647046983,        0.375
     17,   2.47911954, -0.322438776,        0.375
     18,          -1., -0.288450003,        0.375
     19,          -1.,  0.288450003,        0.375
     20,   2.30626512,  -0.96495688,        0.375
** ... 258 like lines cut
*Element, type=C3D8R
 1,  61, 193,   2,   1,  62, 209,   6,   7
 2, 191,  22,  21, 193, 207, 101, 102, 209
 3, 193,  21,   3,   2, 209, 102,  10,   6
 4, 192,  23,  22, 191, 208, 100, 101, 207
 5,  23, 192, 194,  24, 100, 208, 210,  99
 6,  56,  27,  26, 196,  67,  96,  97, 212
 7,  55,  28,  27,  56,  68,  95,  96,  67
 8,  55,  54,  29,  28,  68,  69,  94,  95
 9,  30,  29,  54,  53,  93,  94,  69,  70
10,  53,  52,  31,  30,  70,  71,  92,  93
11, 199,  32,  31, 200, 215,  91,  92, 216
12,  51,  50, 199, 200,  72,  73, 215, 216
13,  48,  33, 198,  49,  75,  90, 214,  74
14,  47,  34,  33,  48,  76,  89,  90,  75
15,  46,  35,  34,  47,  77,  88,  89,  76
16,  44, 186, 188,  45,  79, 202, 204,  78
17,  35,  46,  45, 188,  88,  77,  78, 204
18, 189, 187, 185, 186, 205, 203, 201, 202
19,  42, 187, 189,  43,  81, 203, 205,  80
20,  37, 185, 187,  38,  86, 201, 203,  85
** ... 71 like lines cut
*Nset, nset=Set-1, generate
   1,  278,    1
*Elset, elset=Set-1, generate
  1,  91,   1
** Section: Section-1
*Solid Section, elset=Set-1, material=Material-1
,
*End Instance
**  
*Nset, nset=Boundary-Fix, instance="Inner Surface"
  5,  6,  7,  8, 37, 38, 39, 40, 41, 42, 43, 44, 45, 46, 47, 48
 49, 50, 51, 52, 53, 54, 55, 56, 57, 58, 59, 60, 61, 62, 83, 84
 85, 86, 87, 88, 89, 90, 91, 92, 93, 94
*Elset, elset=Boundary-Fix, instance="Inner Surface", generate
 27,  52,   1
*Nset, nset=Moment-Node, instance="Outer Surface"
 97,
*Nset, nset=Set-3, instance="Inner Surface"
  1,  2,  3,  4,  5,  6,  7,  8, 11, 12, 13, 14, 15, 16, 17, 18
 19, 20, 21, 22, 23, 24, 25, 26, 27, 28, 29, 30, 31, 32, 33, 34
 35, 36, 37, 38, 39, 40, 41, 42, 43, 44, 45, 46, 47, 48, 49, 50
 51, 52, 53, 54, 55, 56, 57, 58, 59, 60, 61, 62, 71, 72, 73, 74
 75, 76, 77, 78, 79, 80, 81, 82, 83, 84, 85, 86, 87, 88, 89, 90
 91, 92, 93, 94
*Elset, elset=Set-3, instance="Inner Surface", generate
  1,  52,   1
*Elset, elset=_innerLeftSurface_SPOS, internal, instance="Inner Surface", generate
 53,  58,   1
*Surface, type=ELEMENT, name=innerLeftSurface
_innerLeftSurface_SPOS, SPOS
*Elset, elset=_innerLeftSurfaceD_S6, internal, instance=Flexure-Outer-Cut-1
 61,
*Elset, elset=_innerLeftSurfaceD_S5, internal, instance=Flexure-Outer-Cut-1
 62,
*Surface, type=ELEMENT, name=innerLeftSurfaceD
_innerLeftSurfaceD_S6, S6
_innerLeftSurfaceD_S5, S5
*Elset, elset=_innerRightSurface_SPOS, internal, instance="Inner Surface", generate
 59,  66,   1
*Surface, type=ELEMENT, name=innerRightSurface
_innerRightSurface_SPOS, SPOS
*Elset, elset=_innerRightSurfaceD_S5, internal, instance=Flexure-Outer-Cut-1
 22, 23
*Surface, type=ELEMENT, name=innerRightSurfaceD
_innerRightSurfaceD_S5, S5
*Elset, elset=_outerLeftSurface_SPOS, internal, instance="Outer Surface"
 47, 48
*Surface, type=ELEMENT, name=outerLeftSurface
_outerLeftSurface_SPOS, SPOS
*Elset, elset=_outerLeftSurfaceD_S5, internal, instance=Flexure-Outer-Cut-1
 1, 3
*Surface, type=ELEMENT, name=outerLeftSurfaceD
_outerLeftSurfaceD_S5, S5
*Elset, elset=_outerRightSurface_SPOS, internal, instance="Outer Surface"
 45, 46
*Surface, type=ELEMENT, name=outerRightSurface
_outerRightSurface_SPOS, SPOS
*Elset, elset=_outerRightSurfaceD_S4, internal, instance=Flexure-Outer-Cut-1
 39,
*Elset, elset=_outerRightSurfaceD_S6, internal, instance=Flexure-Outer-Cut-1
 45,
*Surface, type=ELEMENT, name=outerRightSurfaceD
_outerRightSurfaceD_S4, S4
_outerRightSurfaceD_S6, S6
*Rigid Body, ref node="Inner Surface"."Inner Surface-RefPt_", elset="Inner Surface"."Inner Surface"
*Rigid Body, ref node="Outer Surface"."Outer Surface-RefPt_", elset="Outer Surface"."Outer Surface"
** Constraint: innerLeftTie
*Tie, name=innerLeftTie, adjust=yes
innerRightSurfaceD, innerRightSurface
** Constraint: innerRightTie
*Tie, name=innerRightTie, adjust=yes
innerRightSurfaceD, innerRightSurface
** Constraint: outerLeftTie
*Tie, name=outerLeftTie, adjust=yes
innerRightSurfaceD, innerRightSurface
** Constraint: outerRightTie
*Tie, name=outerRightTie, adjust=yes
innerRightSurfaceD, innerRightSurface
*End Assembly
** 
** MATERIALS
** 
*Material, name=Material-1
*Elastic
 2.75e+07, 0.33
*Plastic
309700.,0.
** 
** BOUNDARY CONDITIONS
** 
** Name: Inner-Encastre Type: Symmetry/Antisymmetry/Encastre
*Boundary
Set-3, ENCASTRE
** ----------------------------------------------------------------
** 
** STEP: Step-1
** 
*Step, name=Step-1, nlgeom=NO
*Static
1., 1., 1e-05, 1.
** 
** LOADS
** 
** Name: Load-1   Type: Moment
*Cload
Moment-Node, 6, 514.
** 
** OUTPUT REQUESTS
** 
*Restart, write, frequency=0
** 
** FIELD OUTPUT: F-Output-1
** 
*Output, field, variable=PRESELECT
** 
** HISTORY OUTPUT: H-Output-1
** 
*Output, history, variable=PRESELECT
*End Step
