1

   Abaqus 2023                                  Date 18-Jul-2024   Time 11:33:46
   For use by TEXAS A_M UNIVERSITY SYSTEM under license from Dassault Systemes or its subsidiary.

                                                                                 
                                                                                 
 STEP    1     INCREMENT     1     STEP TIME    0.00    


                        S T E P       1     S T A T I C   A N A L Y S I S


                                                                                          

     AUTOMATIC TIME CONTROL WITH -
          A SUGGESTED INITIAL TIME INCREMENT OF                0.100    
          AND A TOTAL TIME PERIOD OF                            1.00    
          THE MINIMUM TIME INCREMENT ALLOWED IS                1.000E-05
          THE MAXIMUM TIME INCREMENT ALLOWED IS                 1.00    

     LINEAR EQUATION SOLVER TYPE         DIRECT SPARSE

 CONVERGENCE TOLERANCE PARAMETERS FOR FORCE    
     CRITERION FOR RESIDUAL FORCE     FOR A NONLINEAR PROBLEM          5.000E-03
     CRITERION FOR DISP.    CORRECTION IN A NONLINEAR PROBLEM          1.000E-02
     INITIAL VALUE OF TIME AVERAGE FORCE                               1.000E-02
     AVERAGE FORCE     IS TIME AVERAGE FORCE    
     ALTERNATE CRIT. FOR RESIDUAL FORCE     FOR A NONLINEAR PROBLEM    2.000E-02
     CRITERION FOR ZERO FORCE     RELATIVE TO TIME AVRG. FORCE         1.000E-05
     CRITERION FOR RESIDUAL FORCE     WHEN THERE IS ZERO FLUX          1.000E-05
     CRITERION FOR DISP.    CORRECTION WHEN THERE IS ZERO FLUX         1.000E-03
     CRITERION FOR RESIDUAL FORCE     FOR A LINEAR INCREMENT           1.000E-08
     FIELD CONVERSION RATIO                                             1.00    
     CRITERION FOR ZERO FORCE     REL. TO TIME AVRG. MAX. FORCE        1.000E-05
     CRITERION FOR ZERO DISP.    RELATIVE TO CHARACTERISTIC LENGTH     1.000E-08

 CONVERGENCE TOLERANCE PARAMETERS FOR MOMENT   
     CRITERION FOR RESIDUAL MOMENT    FOR A NONLINEAR PROBLEM          5.000E-03
     CRITERION FOR ROTATION CORRECTION IN A NONLINEAR PROBLEM          1.000E-02
     INITIAL VALUE OF TIME AVERAGE MOMENT                              1.000E-02
     AVERAGE MOMENT    IS TIME AVERAGE MOMENT   
     ALTERNATE CRIT. FOR RESIDUAL MOMENT    FOR A NONLINEAR PROBLEM    2.000E-02
     CRITERION FOR ZERO MOMENT    RELATIVE TO TIME AVRG. MOMENT        1.000E-05
     CRITERION FOR RESIDUAL MOMENT    WHEN THERE IS ZERO FLUX          1.000E-05
     CRITERION FOR ROTATION CORRECTION WHEN THERE IS ZERO FLUX         1.000E-03
     CRITERION FOR RESIDUAL MOMENT    FOR A LINEAR INCREMENT           1.000E-08
     FIELD CONVERSION RATIO                                             1.00    
     CRITERION FOR ZERO MOMENT    REL. TO TIME AVRG. MAX. MOMENT       1.000E-05

     VOLUMETRIC STRAIN COMPATIBILITY TOLERANCE FOR HYBRID SOLIDS       1.000E-05
     AXIAL STRAIN COMPATIBILITY TOLERANCE FOR HYBRID BEAMS             1.000E-05
     TRANS. SHEAR STRAIN COMPATIBILITY TOLERANCE FOR HYBRID BEAMS      1.000E-05
     SOFT CONTACT CONSTRAINT COMPATIBILITY TOLERANCE FOR P>P0          5.000E-03
     SOFT CONTACT CONSTRAINT COMPATIBILITY TOLERANCE FOR P=0.0         0.100    
     CONTACT FORCE ERROR TOLERANCE FOR CONVERT SDI=YES                 1.00    
     DISPLACEMENT COMPATIBILITY TOLERANCE FOR DCOUP ELEMENTS           1.000E-05
     ROTATION COMPATIBILITY TOLERANCE FOR DCOUP ELEMENTS               1.000E-05

 EQUILIBRIUM WILL BE CHECKED FOR SEVERE DISCONTINUITY ITERATIONS

 TIME INCREMENTATION CONTROL PARAMETERS:
     FIRST EQUILIBRIUM ITERATION FOR CONSECUTIVE DIVERGENCE CHECK              4
     EQUILIBRIUM ITERATION AT WHICH LOG. CONVERGENCE RATE CHECK BEGINS         8
     EQUILIBRIUM ITERATION AFTER WHICH ALTERNATE RESIDUAL IS USED              9
     MAXIMUM EQUILIBRIUM ITERATIONS ALLOWED                                   16
     EQUILIBRIUM ITERATION COUNT FOR CUT-BACK IN NEXT INCREMENT               10
     MAXIMUM EQUILIB. ITERS IN TWO INCREMENTS FOR TIME INCREMENT INCREASE      4
     MAXIMUM ITERATIONS FOR SEVERE DISCONTINUITIES                            50
     MAXIMUM ATTEMPTS ALLOWED IN AN INCREMENT                                  5
     MAXIMUM DISCON. ITERS IN TWO INCREMENTS FOR TIME INCREMENT INCREASE      50
     MAXIMUM CONTACT AUGMENTATIONS FOR *SURFACE BEHAVIOR,AUGMENTED LAGRANGE   50
     CUT-BACK FACTOR AFTER DIVERGENCE                                 0.2500    
     CUT-BACK FACTOR FOR TOO SLOW CONVERGENCE                         0.5000    
     CUT-BACK FACTOR AFTER TOO MANY EQUILIBRIUM ITERATIONS            0.7500    
     CUT-BACK FACTOR AFTER TOO MANY SEVERE DISCONTINUITY ITERATIONS   0.2500    
     CUT-BACK FACTOR AFTER PROBLEMS IN ELEMENT ASSEMBLY               0.2500    
     INCREASE FACTOR AFTER TWO INCREMENTS THAT CONVERGE QUICKLY        1.500    
     MAX. TIME INCREMENT INCREASE FACTOR ALLOWED                       1.500    
     MAX. TIME INCREMENT INCREASE FACTOR ALLOWED (DYNAMICS)            1.250    
     MAX. TIME INCREMENT INCREASE FACTOR ALLOWED (DIFFUSION)           2.000    
     MINIMUM TIME INCREMENT RATIO FOR EXTRAPOLATION TO OCCUR          0.1000    
     MAX. RATIO OF TIME INCREMENT TO STABILITY LIMIT                   1.000    
     FRACTION OF STABILITY LIMIT FOR NEW TIME INCREMENT               0.9500    
     TIME INCREMENT INCREASE FACTOR BEFORE A TIME POINT                1.000    
     GLOBAL STABILIZATION CONTROL IS NOT USED

          PRINT OF INCREMENT NUMBER, TIME, ETC., EVERY    1  INCREMENTS

     THE MAXIMUM NUMBER OF INCREMENTS IN THIS STEP IS                     100

     LINEAR EXTRAPOLATION WILL BE USED

     CHARACTERISTIC ELEMENT LENGTH     3.209E-02

     DETAILS REGARDING ACTUAL SOLUTION WAVEFRONT REQUESTED

     DETAILED OUTPUT OF DIAGNOSTICS TO DATABASE REQUESTED

     PRINT OF INCREMENT NUMBER, TIME, ETC., TO THE MESSAGE FILE EVERY     1  INCREMENTS

     COLLECTING MODEL CONSTRAINT INFORMATION FOR OVERCONSTRAINT CHECKS

     COLLECTING STEP CONSTRAINT INFORMATION FOR OVERCONSTRAINT CHECKS


  INCREMENT     1 STARTS. ATTEMPT NUMBER  1, TIME INCREMENT  0.100    
 
	SYMMETRIC DIRECT SPARSE SOLVER RUNNING ON
 	1 HOST:        1 MPI RANK  x 1 THREAD
 	NUMBER OF EQUATIONS:     225804
 	NUMBER OF RHS:           1
 	NUMBER OF FLOPS:         1.006e+11

     CHECK POINT  START OF SOLVER     

     CHECK POINT  END OF SOLVER       

       ELAPSED USER TIME (SEC)      =   3.4000    
       ELAPSED SYSTEM TIME (SEC)    =   0.0000    
       ELAPSED TOTAL CPU TIME (SEC) =   3.4000    
       ELAPSED WALLCLOCK TIME (SEC) =            4

               CONVERGENCE CHECKS FOR EQUILIBRIUM ITERATION     1


 AVERAGE FORCE                      0.386       TIME AVG. FORCE       0.386    
 LARGEST RESIDUAL FORCE             2.138E-11   AT NODE      70815   DOF  2
   INSTANCE: FLEXURE-OUTER-CUT-1                                                             
 LARGEST INCREMENT OF DISP.         7.422E-03   AT NODE          9   DOF  2
   INSTANCE: Outer Surface                                                                   
 LARGEST CORRECTION TO DISP.        7.422E-03   AT NODE          9   DOF  2
   INSTANCE: Outer Surface                                                                   
          THE FORCE     EQUILIBRIUM RESPONSE WAS LINEAR IN THIS INCREMENT

 AVERAGE MOMENT                     0.245       TIME AVG. MOMENT      0.245    
 LARGEST RESIDUAL MOMENT            3.198E-09   AT NODE        509   DOF  6
   INSTANCE: Outer Surface                                                                   
 LARGEST INCREMENT OF ROTATION      2.969E-03   AT NODE        509   DOF  6
   INSTANCE: Outer Surface                                                                   
 LARGEST CORRECTION TO ROTATION     2.969E-03   AT NODE        509   DOF  6
   INSTANCE: Outer Surface                                                                   
 ESTIMATE OF ROTATION CORRECTION    2.087E-14
 MOMENT    EQUILIB. ACCEPTED BASED ON SMALL RESIDUAL AND ESTIMATED CORRECTION

 ITERATION SUMMARY FOR THE INCREMENT:   1 TOTAL ITERATIONS, OF WHICH
   0 ARE SEVERE DISCONTINUITY ITERATIONS AND  1 ARE EQUILIBRIUM ITERATIONS.

 TIME INCREMENT COMPLETED  0.100    ,  FRACTION OF STEP COMPLETED  0.100    
 STEP TIME COMPLETED       0.100    ,  TOTAL TIME COMPLETED        0.100    


  INCREMENT     2 STARTS. ATTEMPT NUMBER  1, TIME INCREMENT  0.100    
 
	SYMMETRIC DIRECT SPARSE SOLVER RUNNING ON
 	1 HOST:        1 MPI RANK  x 1 THREAD
 	NUMBER OF EQUATIONS:     225804
 	NUMBER OF RHS:           1
 	NUMBER OF FLOPS:         1.006e+11

     CHECK POINT  START OF SOLVER     

     CHECK POINT  END OF SOLVER       

       ELAPSED USER TIME (SEC)      =   3.4000    
       ELAPSED SYSTEM TIME (SEC)    =  0.10000    
       ELAPSED TOTAL CPU TIME (SEC) =   3.5000    
       ELAPSED WALLCLOCK TIME (SEC) =            4

               CONVERGENCE CHECKS FOR EQUILIBRIUM ITERATION     1


 AVERAGE FORCE                      0.778       TIME AVG. FORCE       0.582    
 LARGEST RESIDUAL FORCE             2.399E-12   AT NODE      58711   DOF  2
   INSTANCE: FLEXURE-OUTER-CUT-1                                                             
 LARGEST INCREMENT OF DISP.         7.422E-03   AT NODE          7   DOF  2
   INSTANCE: Outer Surface                                                                   
 LARGEST CORRECTION TO DISP.       -3.959E-13   AT NODE         70   DOF  2
   INSTANCE: Outer Surface                                                                   
          THE FORCE     EQUILIBRIUM RESPONSE WAS LINEAR IN THIS INCREMENT

 AVERAGE MOMENT                      910.       TIME AVG. MOMENT       455.    
 LARGEST RESIDUAL MOMENT           -2.254E-10   AT NODE        509   DOF  6
   INSTANCE: Outer Surface                                                                   
 LARGEST INCREMENT OF ROTATION      2.969E-03   AT NODE        509   DOF  6
   INSTANCE: Outer Surface                                                                   
 LARGEST CORRECTION TO ROTATION     4.515E-14   AT NODE        509   DOF  6
   INSTANCE: Outer Surface                                                                   
          THE MOMENT    EQUILIBRIUM RESPONSE WAS LINEAR IN THIS INCREMENT
          TIME INCREMENT MAY NOW INCREASE TO    0.150    

 ITERATION SUMMARY FOR THE INCREMENT:   1 TOTAL ITERATIONS, OF WHICH
   0 ARE SEVERE DISCONTINUITY ITERATIONS AND  1 ARE EQUILIBRIUM ITERATIONS.

 TIME INCREMENT COMPLETED  0.100    ,  FRACTION OF STEP COMPLETED  0.200    
 STEP TIME COMPLETED       0.200    ,  TOTAL TIME COMPLETED        0.200    


  INCREMENT     3 STARTS. ATTEMPT NUMBER  1, TIME INCREMENT  0.150    
 
	SYMMETRIC DIRECT SPARSE SOLVER RUNNING ON
 	1 HOST:        1 MPI RANK  x 1 THREAD
 	NUMBER OF EQUATIONS:     225804
 	NUMBER OF RHS:           1
 	NUMBER OF FLOPS:         1.006e+11

     CHECK POINT  START OF SOLVER     

     CHECK POINT  END OF SOLVER       

       ELAPSED USER TIME (SEC)      =  0.10000    
       ELAPSED SYSTEM TIME (SEC)    =  0.10000    
       ELAPSED TOTAL CPU TIME (SEC) =  0.20000    
       ELAPSED WALLCLOCK TIME (SEC) =            0

               CONVERGENCE CHECKS FOR EQUILIBRIUM ITERATION     1


 AVERAGE FORCE                       1.36       TIME AVG. FORCE       0.842    
 LARGEST RESIDUAL FORCE             3.543E-12   AT NODE      69686   DOF  2
   INSTANCE: FLEXURE-OUTER-CUT-1                                                             
 LARGEST INCREMENT OF DISP.         1.113E-02   AT NODE          7   DOF  2
   INSTANCE: Outer Surface                                                                   
 LARGEST CORRECTION TO DISP.        2.970E-13   AT NODE         70   DOF  2
   INSTANCE: Outer Surface                                                                   
          THE FORCE     EQUILIBRIUM RESPONSE WAS LINEAR IN THIS INCREMENT

 AVERAGE MOMENT                     1.592E+03   TIME AVG. MOMENT       834.    
 LARGEST RESIDUAL MOMENT            5.941E-11   AT NODE        509   DOF  6
   INSTANCE: Outer Surface                                                                   
 LARGEST INCREMENT OF ROTATION      4.453E-03   AT NODE        509   DOF  6
   INSTANCE: Outer Surface                                                                   
 LARGEST CORRECTION TO ROTATION    -3.387E-14   AT NODE        509   DOF  6
   INSTANCE: Outer Surface                                                                   
          THE MOMENT    EQUILIBRIUM RESPONSE WAS LINEAR IN THIS INCREMENT
          TIME INCREMENT MAY NOW INCREASE TO    0.225    

 ITERATION SUMMARY FOR THE INCREMENT:   1 TOTAL ITERATIONS, OF WHICH
   0 ARE SEVERE DISCONTINUITY ITERATIONS AND  1 ARE EQUILIBRIUM ITERATIONS.

 TIME INCREMENT COMPLETED  0.150    ,  FRACTION OF STEP COMPLETED  0.350    
 STEP TIME COMPLETED       0.350    ,  TOTAL TIME COMPLETED        0.350    


  INCREMENT     4 STARTS. ATTEMPT NUMBER  1, TIME INCREMENT  0.225    
 
	SYMMETRIC DIRECT SPARSE SOLVER RUNNING ON
 	1 HOST:        1 MPI RANK  x 1 THREAD
 	NUMBER OF EQUATIONS:     225804
 	NUMBER OF RHS:           1
 	NUMBER OF FLOPS:         1.006e+11

     CHECK POINT  START OF SOLVER     

     CHECK POINT  END OF SOLVER       

       ELAPSED USER TIME (SEC)      =  0.10000    
       ELAPSED SYSTEM TIME (SEC)    =   0.0000    
       ELAPSED TOTAL CPU TIME (SEC) =  0.10000    
       ELAPSED WALLCLOCK TIME (SEC) =            0

               CONVERGENCE CHECKS FOR EQUILIBRIUM ITERATION     1


 AVERAGE FORCE                       2.24       TIME AVG. FORCE        1.19    
 LARGEST RESIDUAL FORCE             5.256E-12   AT NODE      21915   DOF  2
   INSTANCE: FLEXURE-OUTER-CUT-1                                                             
 LARGEST INCREMENT OF DISP.         1.670E-02   AT NODE          7   DOF  2
   INSTANCE: Outer Surface                                                                   
 LARGEST CORRECTION TO DISP.       -1.360E-16   AT NODE      13341   DOF  3
   INSTANCE: FLEXURE-OUTER-CUT-1                                                             
          THE FORCE     EQUILIBRIUM RESPONSE WAS LINEAR IN THIS INCREMENT

 AVERAGE MOMENT                     2.616E+03   TIME AVG. MOMENT      1.280E+03
 LARGEST RESIDUAL MOMENT            8.255E-11   AT NODE        509   DOF  6
   INSTANCE: Outer Surface                                                                   
 LARGEST INCREMENT OF ROTATION      6.679E-03   AT NODE        509   DOF  6
   INSTANCE: Outer Surface                                                                   
 LARGEST CORRECTION TO ROTATION     4.090E-17   AT NODE        509   DOF  5
   INSTANCE: Outer Surface                                                                   
          THE MOMENT    EQUILIBRIUM RESPONSE WAS LINEAR IN THIS INCREMENT
          TIME INCREMENT MAY NOW INCREASE TO    0.338    

 ITERATION SUMMARY FOR THE INCREMENT:   1 TOTAL ITERATIONS, OF WHICH
   0 ARE SEVERE DISCONTINUITY ITERATIONS AND  1 ARE EQUILIBRIUM ITERATIONS.

 TIME INCREMENT COMPLETED  0.225    ,  FRACTION OF STEP COMPLETED  0.575    
 STEP TIME COMPLETED       0.575    ,  TOTAL TIME COMPLETED        0.575    


  INCREMENT     5 STARTS. ATTEMPT NUMBER  1, TIME INCREMENT  0.338    
 
	SYMMETRIC DIRECT SPARSE SOLVER RUNNING ON
 	1 HOST:        1 MPI RANK  x 1 THREAD
 	NUMBER OF EQUATIONS:     225804
 	NUMBER OF RHS:           1
 	NUMBER OF FLOPS:         1.006e+11

     CHECK POINT  START OF SOLVER     

     CHECK POINT  END OF SOLVER       

       ELAPSED USER TIME (SEC)      =  0.20000    
       ELAPSED SYSTEM TIME (SEC)    =   0.0000    
       ELAPSED TOTAL CPU TIME (SEC) =  0.20000    
       ELAPSED WALLCLOCK TIME (SEC) =            0

               CONVERGENCE CHECKS FOR EQUILIBRIUM ITERATION     1


 AVERAGE FORCE                       3.55       TIME AVG. FORCE        1.66    
 LARGEST RESIDUAL FORCE             9.202E-12   AT NODE      53183   DOF  2
   INSTANCE: FLEXURE-OUTER-CUT-1                                                             
 LARGEST INCREMENT OF DISP.         2.505E-02   AT NODE          7   DOF  2
   INSTANCE: Outer Surface                                                                   
 LARGEST CORRECTION TO DISP.        1.145E-16   AT NODE        161   DOF  1
   INSTANCE: Outer Surface                                                                   
          THE FORCE     EQUILIBRIUM RESPONSE WAS LINEAR IN THIS INCREMENT

 AVERAGE MOMENT                     4.152E+03   TIME AVG. MOMENT      1.854E+03
 LARGEST RESIDUAL MOMENT           -2.570E-10   AT NODE        509   DOF  6
   INSTANCE: Outer Surface                                                                   
 LARGEST INCREMENT OF ROTATION      1.002E-02   AT NODE        509   DOF  6
   INSTANCE: Outer Surface                                                                   
 LARGEST CORRECTION TO ROTATION    -3.107E-17   AT NODE        509   DOF  6
   INSTANCE: Outer Surface                                                                   
          THE MOMENT    EQUILIBRIUM RESPONSE WAS LINEAR IN THIS INCREMENT

 ITERATION SUMMARY FOR THE INCREMENT:   1 TOTAL ITERATIONS, OF WHICH
   0 ARE SEVERE DISCONTINUITY ITERATIONS AND  1 ARE EQUILIBRIUM ITERATIONS.

 TIME INCREMENT COMPLETED  0.338    ,  FRACTION OF STEP COMPLETED  0.913    
 STEP TIME COMPLETED       0.913    ,  TOTAL TIME COMPLETED        0.913    


  INCREMENT     6 STARTS. ATTEMPT NUMBER  1, TIME INCREMENT  8.750E-02
 
	SYMMETRIC DIRECT SPARSE SOLVER RUNNING ON
 	1 HOST:        1 MPI RANK  x 1 THREAD
 	NUMBER OF EQUATIONS:     225804
 	NUMBER OF RHS:           1
 	NUMBER OF FLOPS:         1.006e+11

     CHECK POINT  START OF SOLVER     

     CHECK POINT  END OF SOLVER       

       ELAPSED USER TIME (SEC)      =  0.10000    
       ELAPSED SYSTEM TIME (SEC)    =   0.0000    
       ELAPSED TOTAL CPU TIME (SEC) =  0.10000    
       ELAPSED WALLCLOCK TIME (SEC) =            0

               CONVERGENCE CHECKS FOR EQUILIBRIUM ITERATION     1


 AVERAGE FORCE                       3.89       TIME AVG. FORCE        2.03    
 LARGEST RESIDUAL FORCE             2.565E-12   AT NODE      24937   DOF  2
   INSTANCE: FLEXURE-OUTER-CUT-1                                                             
 LARGEST INCREMENT OF DISP.         6.494E-03   AT NODE          7   DOF  2
   INSTANCE: Outer Surface                                                                   
 LARGEST CORRECTION TO DISP.       -1.058E-16   AT NODE        214   DOF  1
   INSTANCE: Outer Surface                                                                   
          THE FORCE     EQUILIBRIUM RESPONSE WAS LINEAR IN THIS INCREMENT

 AVERAGE MOMENT                     4.550E+03   TIME AVG. MOMENT      2.303E+03
 LARGEST RESIDUAL MOMENT            2.724E-11   AT NODE        509   DOF  6
   INSTANCE: Outer Surface                                                                   
 LARGEST INCREMENT OF ROTATION      2.598E-03   AT NODE        509   DOF  6
   INSTANCE: Outer Surface                                                                   
 LARGEST CORRECTION TO ROTATION     3.072E-17   AT NODE        509   DOF  6
   INSTANCE: Outer Surface                                                                   
          THE MOMENT    EQUILIBRIUM RESPONSE WAS LINEAR IN THIS INCREMENT

 ITERATION SUMMARY FOR THE INCREMENT:   1 TOTAL ITERATIONS, OF WHICH
   0 ARE SEVERE DISCONTINUITY ITERATIONS AND  1 ARE EQUILIBRIUM ITERATIONS.

 TIME INCREMENT COMPLETED  8.750E-02,  FRACTION OF STEP COMPLETED   1.00    
 STEP TIME COMPLETED        1.00    ,  TOTAL TIME COMPLETED         1.00    


          THE ANALYSIS HAS BEEN COMPLETED



     ANALYSIS SUMMARY:
     TOTAL OF          6  INCREMENTS
                       0  CUTBACKS IN AUTOMATIC INCREMENTATION
                       6  ITERATIONS INCLUDING CONTACT ITERATIONS IF PRESENT
                       6  PASSES THROUGH THE EQUATION SOLVER OF WHICH 
                       2  INVOLVE MATRIX DECOMPOSITION, INCLUDING
                       0  DECOMPOSITION(S) OF THE MASS MATRIX
                       1  REORDERING OF EQUATIONS TO MINIMIZE WAVEFRONT
                       0  ADDITIONAL RESIDUAL EVALUATIONS FOR LINE SEARCHES
                       0  ADDITIONAL OPERATOR EVALUATIONS FOR LINE SEARCHES
                     811  WARNING MESSAGES DURING USER INPUT PROCESSING
                       0  WARNING MESSAGES DURING ANALYSIS
                       0  ANALYSIS WARNINGS ARE NUMERICAL PROBLEM MESSAGES
                       0  ANALYSIS WARNINGS ARE NEGATIVE EIGENVALUE MESSAGES
                       0  ERROR MESSAGES



     JOB TIME SUMMARY
       USER TIME (SEC)      =      16.    
       SYSTEM TIME (SEC)    =     0.70    
       TOTAL CPU TIME (SEC) =      17.    
       WALLCLOCK TIME (SEC) =           17
       MEMORY PEAK (GB)     =            1
