*Heading
** Job name: Job-1 Model name: Model-1
** Generated by: Abaqus/CAE 2023
*Preprint, echo=NO, model=NO, history=NO, contact=NO
**
** PARTS
**
*Part, name=Part-5
*End Part
**  
**
** ASSEMBLY
**
*Assembly, name=Assembly
**  
*Instance, name=Part-5-1, part=Part-5
*Node
      1, 0.00541117042, -0.405239314
      2,  0.626611948, -0.379260987
      3,  0.694193184,  -0.37685436
      4, -0.00197781273,  -1.09999824
      5,   1.00928962, -0.437418044
      6, -0.583636403, -0.392588496
      7,  -1.00641823, -0.443984687
      8, -0.870612919, -0.417945892
      9,  0.703006566, -0.0737263933
     10,   1.12497258, -0.316602439
     11,   1.10166132, -0.060865324
     12,  0.882126808, -0.0393237546
     13,  0.637787163, -0.0795424208
     14,  0.627283454,  0.121899053
     15,   0.08249899,  0.267168164
     16,  0.058260791,  0.112144083
     17, -0.626649618, 0.0859872028
     18, -0.601449966, -0.0867293254
     19, -0.900289059, -0.133831084
     20,   -1.0926075, -0.161042571
** ... 8621 like lines cut
*Element, type=CPS4R
   1,    1,   71, 1548,   86
   2,   71,   72, 1549, 1548
   3,   72,   73, 1550, 1549
   4,   73,   74, 1531, 1550
   5,   86, 1548, 1551,   85
   6, 1548, 1549, 1552, 1551
   7, 1549, 1550, 1553, 1552
   8, 1550, 1531, 1532, 1553
   9,   85, 1551, 1554,   84
  10, 1551, 1552, 1555, 1554
  11, 1552, 1553, 1556, 1555
  12, 1553, 1532, 1533, 1556
  13,   84, 1554, 1557,   83
  14, 1554, 1555, 1558, 1557
  15, 1555, 1556, 1559, 1558
  16, 1556, 1533, 1534, 1559
  17,   83, 1557, 1560,   82
  18, 1557, 1558, 1561, 1560
  19, 1558, 1559, 1562, 1561
  20, 1559, 1534, 1535, 1562
** ... 8015 like lines cut
*Nset, nset=Set-1, generate
    1,  8641,     1
*Elset, elset=Set-1, generate
    1,  8035,     1
** Section: Section-2
*Solid Section, elset=Set-1, material=Marging300Steel
0.375,
*End Instance
**  
*Node
      1,           0., 6.73555769e-17,           0.
*Nset, nset="Edge Seeds-1", instance=Part-5-1
   10,   21,   22,   23,   25,   34,   35,   36,   37,   38,   41,   42,   45,   46,   49,   50
  156,  255,  256,  257,  258,  259,  260,  261,  262,  263,  264,  265,  266,  267,  268,  269
  270,  271,  272,  273,  274,  275,  276,  277,  278,  279,  280,  281,  282,  283,  284,  285
  286,  287,  288,  289,  290,  291,  292,  293,  294,  295,  296,  297,  298,  299,  300,  301
  302,  303,  304,  305,  306,  307,  308,  309,  310,  311,  312,  313,  314,  315,  316,  317
  318,  319,  320,  324,  325,  326,  327,  328,  329,  330,  331,  332,  333,  334,  335,  336
  337,  338,  339,  340,  341,  342,  343,  344,  345,  346,  347,  348,  349,  350,  351,  352
  353,  354,  355,  356,  357,  358,  359,  360,  361,  362,  363,  364,  365,  366,  367,  368
  369,  370,  371,  372,  373,  374,  375,  376,  377,  378,  379,  380,  381,  382,  383,  384
  385,  386,  387,  388,  389,  464,  465,  466,  467,  468,  469,  470,  471,  472,  473,  474
  475,  476,  477,  478,  479,  480,  481,  482,  483,  484,  485,  486,  487,  488,  489,  490
  491,  492,  493,  494,  495,  496,  497,  498,  499,  500,  501,  502,  503,  504,  505,  506
  507,  508,  509,  510,  511,  512,  513,  514,  515,  516,  517,  518,  519,  520,  521,  522
  523,  524,  525,  526,  527,  528,  529,  538,  539,  540,  541,  542,  543,  544,  545,  546
  547,  548,  549,  550,  551,  552,  553,  554,  555,  556,  557,  558,  559,  560,  561,  562
  563,  564,  565,  566,  567,  568,  569,  570,  571,  572,  573,  574,  575,  576,  577,  578
  579,  580,  581,  582,  583,  584,  585,  586,  587,  588,  589,  590,  591,  592,  593,  594
  595,  596,  597,  598,  599,  600,  601,  602,  603,  618,  619,  620,  621,  622,  623,  624
  625,  626,  627,  628,  629,  630,  631,  632,  633,  634,  635,  636,  637,  638,  639,  640
  641,  642,  643,  644,  645,  646,  647,  648,  649,  650,  651,  652,  653,  654,  655,  656
** ... 38 like lines cut
*Elset, elset="Edge Seeds-1", instance=Part-5-1
  265,  645,  659,  660,  674,  675,  689,  690,  704,  705,  719,  720,  734,  735,  749,  750
  764,  765,  779,  780,  794,  795,  809,  810,  824,  825,  839,  840,  854,  855,  869,  870
  884,  885,  899,  900,  914,  915,  929,  930,  944,  945,  959,  960,  974,  975,  989,  990
 1004, 1005, 1019, 1020, 1034, 1035, 1049, 1050, 1064, 1065, 1079, 1080, 1094, 1095, 1109, 1110
 1124, 1125, 1139, 1140, 1154, 1155, 1169, 1170, 1184, 1185, 1199, 1200, 1214, 1215, 1229, 1230
 1244, 1245, 1259, 1260, 1274, 1275, 1289, 1290, 1304, 1305, 1319, 1320, 1334, 1335, 1349, 1350
 1364, 1365, 1379, 1380, 1394, 1395, 1409, 1410, 1424, 1425, 1439, 1440, 1454, 1455, 1469, 1470
 1484, 1485, 1499, 1500, 1514, 1515, 1529, 1530, 1544, 1545, 1559, 1560, 1574, 1575, 1589, 1590
 1604, 1605, 1619, 1620, 1634, 1635, 1649, 1888, 1901, 1902, 1915, 1916, 1929, 1930, 1943, 1944
 1957, 1958, 1971, 1972, 1985, 1986, 1999, 2000, 2013, 2014, 2027, 2028, 2041, 2042, 2055, 2056
 2069, 2070, 2083, 2084, 2097, 2098, 2111, 2112, 2125, 2126, 2139, 2140, 2153, 2154, 2167, 2168
 2181, 2182, 2195, 2196, 2209, 2210, 2223, 2224, 2237, 2238, 2251, 2252, 2265, 2266, 2279, 2280
 2293, 2294, 2307, 2308, 2321, 2322, 2335, 2336, 2349, 2350, 2363, 2364, 2377, 2378, 2391, 2392
 2405, 2406, 2419, 2420, 2433, 2434, 2447, 2448, 2461, 2462, 2475, 2476, 2489, 2490, 2503, 2504
 2517, 2518, 2531, 2532, 2545, 2546, 2559, 2560, 2573, 2574, 2587, 2588, 2601, 2602, 2615, 2616
 2629, 2630, 2643, 2644, 2657, 2658, 2671, 2672, 2685, 2686, 2699, 2700, 2713, 2714, 2727, 2728
 2741, 2742, 2755, 2756, 2769, 2770, 2783, 2784, 2797, 2798, 2811, 2812, 2825, 2826, 2840, 2841
 2855, 2856, 2870, 2871, 2885, 2886, 2900, 2901, 2915, 2916, 2930, 2931, 2945, 2946, 2960, 2961
 2975, 2976, 2990, 2991, 3005, 3006, 3020, 3021, 3035, 3036, 3050, 3051, 3065, 3066, 3080, 3081
 3095, 3096, 3110, 3111, 3125, 3126, 3140, 3141, 3155, 3156, 3170, 3171, 3185, 3186, 3200, 3201
** ... 38 like lines cut
*Nset, nset="Edge Seeds-2", instance=Part-5-1
   10,   21,   22,   23,   25,   34,   35,   36,   37,   38,   41,   42,   45,   46,   49,   50
  156,  255,  256,  257,  258,  259,  260,  261,  262,  263,  264,  265,  266,  267,  268,  269
  270,  271,  272,  273,  274,  275,  276,  277,  278,  279,  280,  281,  282,  283,  284,  285
  286,  287,  288,  289,  290,  291,  292,  293,  294,  295,  296,  297,  298,  299,  300,  301
  302,  303,  304,  305,  306,  307,  308,  309,  310,  311,  312,  313,  314,  315,  316,  317
  318,  319,  320,  324,  325,  326,  327,  328,  329,  330,  331,  332,  333,  334,  335,  336
  337,  338,  339,  340,  341,  342,  343,  344,  345,  346,  347,  348,  349,  350,  351,  352
  353,  354,  355,  356,  357,  358,  359,  360,  361,  362,  363,  364,  365,  366,  367,  368
  369,  370,  371,  372,  373,  374,  375,  376,  377,  378,  379,  380,  381,  382,  383,  384
  385,  386,  387,  388,  389,  464,  465,  466,  467,  468,  469,  470,  471,  472,  473,  474
  475,  476,  477,  478,  479,  480,  481,  482,  483,  484,  485,  486,  487,  488,  489,  490
  491,  492,  493,  494,  495,  496,  497,  498,  499,  500,  501,  502,  503,  504,  505,  506
  507,  508,  509,  510,  511,  512,  513,  514,  515,  516,  517,  518,  519,  520,  521,  522
  523,  524,  525,  526,  527,  528,  529,  538,  539,  540,  541,  542,  543,  544,  545,  546
  547,  548,  549,  550,  551,  552,  553,  554,  555,  556,  557,  558,  559,  560,  561,  562
  563,  564,  565,  566,  567,  568,  569,  570,  571,  572,  573,  574,  575,  576,  577,  578
  579,  580,  581,  582,  583,  584,  585,  586,  587,  588,  589,  590,  591,  592,  593,  594
  595,  596,  597,  598,  599,  600,  601,  602,  603,  618,  619,  620,  621,  622,  623,  624
  625,  626,  627,  628,  629,  630,  631,  632,  633,  634,  635,  636,  637,  638,  639,  640
  641,  642,  643,  644,  645,  646,  647,  648,  649,  650,  651,  652,  653,  654,  655,  656
** ... 38 like lines cut
*Elset, elset="Edge Seeds-2", instance=Part-5-1
  265,  645,  659,  660,  674,  675,  689,  690,  704,  705,  719,  720,  734,  735,  749,  750
  764,  765,  779,  780,  794,  795,  809,  810,  824,  825,  839,  840,  854,  855,  869,  870
  884,  885,  899,  900,  914,  915,  929,  930,  944,  945,  959,  960,  974,  975,  989,  990
 1004, 1005, 1019, 1020, 1034, 1035, 1049, 1050, 1064, 1065, 1079, 1080, 1094, 1095, 1109, 1110
 1124, 1125, 1139, 1140, 1154, 1155, 1169, 1170, 1184, 1185, 1199, 1200, 1214, 1215, 1229, 1230
 1244, 1245, 1259, 1260, 1274, 1275, 1289, 1290, 1304, 1305, 1319, 1320, 1334, 1335, 1349, 1350
 1364, 1365, 1379, 1380, 1394, 1395, 1409, 1410, 1424, 1425, 1439, 1440, 1454, 1455, 1469, 1470
 1484, 1485, 1499, 1500, 1514, 1515, 1529, 1530, 1544, 1545, 1559, 1560, 1574, 1575, 1589, 1590
 1604, 1605, 1619, 1620, 1634, 1635, 1649, 1888, 1901, 1902, 1915, 1916, 1929, 1930, 1943, 1944
 1957, 1958, 1971, 1972, 1985, 1986, 1999, 2000, 2013, 2014, 2027, 2028, 2041, 2042, 2055, 2056
 2069, 2070, 2083, 2084, 2097, 2098, 2111, 2112, 2125, 2126, 2139, 2140, 2153, 2154, 2167, 2168
 2181, 2182, 2195, 2196, 2209, 2210, 2223, 2224, 2237, 2238, 2251, 2252, 2265, 2266, 2279, 2280
 2293, 2294, 2307, 2308, 2321, 2322, 2335, 2336, 2349, 2350, 2363, 2364, 2377, 2378, 2391, 2392
 2405, 2406, 2419, 2420, 2433, 2434, 2447, 2448, 2461, 2462, 2475, 2476, 2489, 2490, 2503, 2504
 2517, 2518, 2531, 2532, 2545, 2546, 2559, 2560, 2573, 2574, 2587, 2588, 2601, 2602, 2615, 2616
 2629, 2630, 2643, 2644, 2657, 2658, 2671, 2672, 2685, 2686, 2699, 2700, 2713, 2714, 2727, 2728
 2741, 2742, 2755, 2756, 2769, 2770, 2783, 2784, 2797, 2798, 2811, 2812, 2825, 2826, 2840, 2841
 2855, 2856, 2870, 2871, 2885, 2886, 2900, 2901, 2915, 2916, 2930, 2931, 2945, 2946, 2960, 2961
 2975, 2976, 2990, 2991, 3005, 3006, 3020, 3021, 3035, 3036, 3050, 3051, 3065, 3066, 3080, 3081
 3095, 3096, 3110, 3111, 3125, 3126, 3140, 3141, 3155, 3156, 3170, 3171, 3185, 3186, 3200, 3201
** ... 38 like lines cut
*Nset, nset=Set-15, instance=Part-5-1
   51,   53,   54,   55,   57,   59,   60,   61,   64,   65,   68,   69, 1325, 1326, 1327, 1328
 1329, 1330, 1347, 1348, 1349, 1350, 1351, 1352, 1359, 1360, 1361, 1362, 1363, 1364, 1379, 1380
 1381, 1382, 1383, 1384, 1392, 1393, 1394, 1395, 1396, 1397, 1398, 1399, 1400, 1401, 1402, 1403
 1404, 1405, 1406, 1407, 1408, 1409, 1410, 1411, 1412, 1444, 1445, 1446, 1447, 1448, 1449, 1450
 1451, 1454, 1455, 1456, 1457, 1458, 1459, 1460, 1461, 1462, 1463, 1464, 1465, 1466, 1467, 1468
 1469, 1470, 1471, 1472, 1492, 1493, 1494, 1495, 1496, 1511, 1512, 1513, 1514, 1515, 1516, 1517
 1524, 1525, 1526, 1527, 1528, 1529
*Elset, elset=Set-15, instance=Part-5-1
 7670, 7671, 7672, 7673, 7704, 7705, 7706, 7707, 7712, 7717, 7738, 7739, 7740, 7741, 7742, 7753
 7754, 7755, 7779, 7780, 7781, 7782, 7783, 7787, 7791, 7795, 7799, 7809, 7810, 7811, 7822, 7825
 7828, 7831, 7834, 7837, 7840, 7843, 7846, 7849, 7852, 7855, 7858, 7861, 7864, 7867, 7870, 7873
 7876, 7879, 7882, 7885, 7886, 7889, 7892, 7895, 7898, 7901, 7904, 7907, 7910, 7915, 7918, 7921
 7924, 7927, 7930, 7933, 7936, 7939, 7942, 7945, 7948, 7951, 7954, 7957, 7960, 7963, 7966, 7969
 7972, 7975, 7978, 7981, 7984, 7987, 7990, 7991, 7994, 7997, 8000, 8003, 8006, 8009, 8012, 8015
 8018, 8021, 8024, 8027, 8030, 8033
*Nset, nset=Set-16, instance=Part-5-1
   4,   5,   7,  28,  29,  30,  31,  40,  92,  93,  94,  95,  96,  97,  98,  99
 100, 101, 102, 103, 104, 105, 106, 107, 108, 109, 110, 111, 112, 113, 114, 115
 116, 117, 118, 119, 141, 240, 410, 411, 412, 413, 414, 415, 416, 431, 432, 433
 434, 435, 436, 437, 438, 718
*Elset, elset=Set-16, instance=Part-5-1
   49,   54,   59,   64,   69,   74,   79,   84,   89,   94,   99,  100,  101,  102,  103,  120
  121,  122,  123,  124,  125,  126,  127,  128,  129,  130,  219,  220,  221,  222,  249,  639
 1768, 1769, 1770, 1771, 1772, 1773, 1774, 1775, 1776, 1777, 1786, 1795, 1804, 1813, 1822, 1831
 1840, 1849, 3480, 3489
*Nset, nset=Set-17, instance=Part-5-1, generate
    1,  8641,     1
*Elset, elset=Set-17, instance=Part-5-1, generate
    1,  8035,     1
*Nset, nset=Set-18, instance=Part-5-1, generate
    1,  8641,     1
*Elset, elset=Set-18, instance=Part-5-1, generate
    1,  8035,     1
*Nset, nset=Set-29
 1,
*Nset, nset=Set-30
 1,
*Nset, nset=Set-31, instance=Part-5-1
 45,
*Nset, nset=Set-32
 1,
*Nset, nset=m_Set-21
 1,
*Nset, nset=p_Set-17, instance=Part-5-1
   51,   53,   54,   55,   57,   59,   60,   61,   64,   65,   68,   69, 1325, 1326, 1327, 1328
 1329, 1330, 1347, 1348, 1349, 1350, 1351, 1352, 1359, 1360, 1361, 1362, 1363, 1364, 1379, 1380
 1381, 1382, 1383, 1384, 1392, 1393, 1394, 1395, 1396, 1397, 1398, 1399, 1400, 1401, 1402, 1403
 1404, 1405, 1406, 1407, 1408, 1409, 1410, 1411, 1412, 1444, 1445, 1446, 1447, 1448, 1449, 1450
 1451, 1454, 1455, 1456, 1457, 1458, 1459, 1460, 1461, 1462, 1463, 1464, 1465, 1466, 1467, 1468
 1469, 1470, 1471, 1472, 1492, 1493, 1494, 1495, 1496, 1511, 1512, 1513, 1514, 1515, 1516, 1517
 1524, 1525, 1526, 1527, 1528, 1529
*Elset, elset=p_Set-17, instance=Part-5-1
 7670, 7671, 7672, 7673, 7704, 7705, 7706, 7707, 7712, 7717, 7738, 7739, 7740, 7741, 7742, 7753
 7754, 7755, 7779, 7780, 7781, 7782, 7783, 7787, 7791, 7795, 7799, 7809, 7810, 7811, 7822, 7825
 7828, 7831, 7834, 7837, 7840, 7843, 7846, 7849, 7852, 7855, 7858, 7861, 7864, 7867, 7870, 7873
 7876, 7879, 7882, 7885, 7886, 7889, 7892, 7895, 7898, 7901, 7904, 7907, 7910, 7915, 7918, 7921
 7924, 7927, 7930, 7933, 7936, 7939, 7942, 7945, 7948, 7951, 7954, 7957, 7960, 7963, 7966, 7969
 7972, 7975, 7978, 7981, 7984, 7987, 7990, 7991, 7994, 7997, 8000, 8003, 8006, 8009, 8012, 8015
 8018, 8021, 8024, 8027, 8030, 8033
*Nset, nset=p_Set-18, instance=Part-5-1, generate
    1,  8641,     1
*Elset, elset=p_Set-18, instance=Part-5-1, generate
    1,  8035,     1
*Nset, nset=s_Set-20, instance=Part-5-1
   51,   53,   54,   55,   57,   59,   60,   61,   64,   65,   68,   69, 1325, 1326, 1327, 1328
 1329, 1330, 1347, 1348, 1349, 1350, 1351, 1352, 1359, 1360, 1361, 1362, 1363, 1364, 1379, 1380
 1381, 1382, 1383, 1384, 1392, 1393, 1394, 1395, 1396, 1397, 1398, 1399, 1400, 1401, 1402, 1403
 1404, 1405, 1406, 1407, 1408, 1409, 1410, 1411, 1412, 1444, 1445, 1446, 1447, 1448, 1449, 1450
 1451, 1454, 1455, 1456, 1457, 1458, 1459, 1460, 1461, 1462, 1463, 1464, 1465, 1466, 1467, 1468
 1469, 1470, 1471, 1472, 1492, 1493, 1494, 1495, 1496, 1511, 1512, 1513, 1514, 1515, 1516, 1517
 1524, 1525, 1526, 1527, 1528, 1529
*Elset, elset=s_Set-20, instance=Part-5-1
 7670, 7671, 7672, 7673, 7704, 7705, 7706, 7707, 7712, 7717, 7738, 7739, 7740, 7741, 7742, 7753
 7754, 7755, 7779, 7780, 7781, 7782, 7783, 7787, 7791, 7795, 7799, 7809, 7810, 7811, 7822, 7825
 7828, 7831, 7834, 7837, 7840, 7843, 7846, 7849, 7852, 7855, 7858, 7861, 7864, 7867, 7870, 7873
 7876, 7879, 7882, 7885, 7886, 7889, 7892, 7895, 7898, 7901, 7904, 7907, 7910, 7915, 7918, 7921
 7924, 7927, 7930, 7933, 7936, 7939, 7942, 7945, 7948, 7951, 7954, 7957, 7960, 7963, 7966, 7969
 7972, 7975, 7978, 7981, 7984, 7987, 7990, 7991, 7994, 7997, 8000, 8003, 8006, 8009, 8012, 8015
 8018, 8021, 8024, 8027, 8030, 8033
*Nset, nset=_PickedSet67, internal, instance=Part-5-1
   51,   53,   54,   55,   57,   59,   60,   61,   64,   65,   68,   69, 1325, 1326, 1327, 1328
 1329, 1330, 1347, 1348, 1349, 1350, 1351, 1352, 1359, 1360, 1361, 1362, 1363, 1364, 1379, 1380
 1381, 1382, 1383, 1384, 1392, 1393, 1394, 1395, 1396, 1397, 1398, 1399, 1400, 1401, 1402, 1403
 1404, 1405, 1406, 1407, 1408, 1409, 1410, 1411, 1412, 1444, 1445, 1446, 1447, 1448, 1449, 1450
 1451, 1454, 1455, 1456, 1457, 1458, 1459, 1460, 1461, 1462, 1463, 1464, 1465, 1466, 1467, 1468
 1469, 1470, 1471, 1472, 1492, 1493, 1494, 1495, 1496, 1511, 1512, 1513, 1514, 1515, 1516, 1517
 1524, 1525, 1526, 1527, 1528, 1529
*Elset, elset=_PickedSet67, internal, instance=Part-5-1
 7670, 7671, 7672, 7673, 7704, 7705, 7706, 7707, 7712, 7717, 7738, 7739, 7740, 7741, 7742, 7753
 7754, 7755, 7779, 7780, 7781, 7782, 7783, 7787, 7791, 7795, 7799, 7809, 7810, 7811, 7822, 7825
 7828, 7831, 7834, 7837, 7840, 7843, 7846, 7849, 7852, 7855, 7858, 7861, 7864, 7867, 7870, 7873
 7876, 7879, 7882, 7885, 7886, 7889, 7892, 7895, 7898, 7901, 7904, 7907, 7910, 7915, 7918, 7921
 7924, 7927, 7930, 7933, 7936, 7939, 7942, 7945, 7948, 7951, 7954, 7957, 7960, 7963, 7966, 7969
 7972, 7975, 7978, 7981, 7984, 7987, 7990, 7991, 7994, 7997, 8000, 8003, 8006, 8009, 8012, 8015
 8018, 8021, 8024, 8027, 8030, 8033
*Nset, nset=_PickedSet68, internal
 1,
*Nset, nset=_PickedSet69, internal
 1,
*Nset, nset=_PickedSet71, internal, instance=Part-5-1
   51,   53,   54,   55,   57,   59,   60,   61,   64,   65,   68,   69, 1325, 1326, 1327, 1328
 1329, 1330, 1347, 1348, 1349, 1350, 1351, 1352, 1359, 1360, 1361, 1362, 1363, 1364, 1379, 1380
 1381, 1382, 1383, 1384, 1392, 1393, 1394, 1395, 1396, 1397, 1398, 1399, 1400, 1401, 1402, 1403
 1404, 1405, 1406, 1407, 1408, 1409, 1410, 1411, 1412, 1444, 1445, 1446, 1447, 1448, 1449, 1450
 1451, 1454, 1455, 1456, 1457, 1458, 1459, 1460, 1461, 1462, 1463, 1464, 1465, 1466, 1467, 1468
 1469, 1470, 1471, 1472, 1492, 1493, 1494, 1495, 1496, 1511, 1512, 1513, 1514, 1515, 1516, 1517
 1524, 1525, 1526, 1527, 1528, 1529
*Elset, elset=_PickedSet71, internal, instance=Part-5-1
 7670, 7671, 7672, 7673, 7704, 7705, 7706, 7707, 7712, 7717, 7738, 7739, 7740, 7741, 7742, 7753
 7754, 7755, 7779, 7780, 7781, 7782, 7783, 7787, 7791, 7795, 7799, 7809, 7810, 7811, 7822, 7825
 7828, 7831, 7834, 7837, 7840, 7843, 7846, 7849, 7852, 7855, 7858, 7861, 7864, 7867, 7870, 7873
 7876, 7879, 7882, 7885, 7886, 7889, 7892, 7895, 7898, 7901, 7904, 7907, 7910, 7915, 7918, 7921
 7924, 7927, 7930, 7933, 7936, 7939, 7942, 7945, 7948, 7951, 7954, 7957, 7960, 7963, 7966, 7969
 7972, 7975, 7978, 7981, 7984, 7987, 7990, 7991, 7994, 7997, 8000, 8003, 8006, 8009, 8012, 8015
 8018, 8021, 8024, 8027, 8030, 8033
*Nset, nset=_PickedSet73, internal
 1,
*Nset, nset=_PickedSet78, internal, instance=Part-5-1
   51,   53,   54,   55,   57,   59,   60,   61,   64,   65,   68,   69, 1325, 1326, 1327, 1328
 1329, 1330, 1347, 1348, 1349, 1350, 1351, 1352, 1359, 1360, 1361, 1362, 1363, 1364, 1379, 1380
 1381, 1382, 1383, 1384, 1392, 1393, 1394, 1395, 1396, 1397, 1398, 1399, 1400, 1401, 1402, 1403
 1404, 1405, 1406, 1407, 1408, 1409, 1410, 1411, 1412, 1444, 1445, 1446, 1447, 1448, 1449, 1450
 1451, 1454, 1455, 1456, 1457, 1458, 1459, 1460, 1461, 1462, 1463, 1464, 1465, 1466, 1467, 1468
 1469, 1470, 1471, 1472, 1492, 1493, 1494, 1495, 1496, 1511, 1512, 1513, 1514, 1515, 1516, 1517
 1524, 1525, 1526, 1527, 1528, 1529
*Elset, elset=_PickedSet78, internal, instance=Part-5-1
 7670, 7671, 7672, 7673, 7704, 7705, 7706, 7707, 7712, 7717, 7738, 7739, 7740, 7741, 7742, 7753
 7754, 7755, 7779, 7780, 7781, 7782, 7783, 7787, 7791, 7795, 7799, 7809, 7810, 7811, 7822, 7825
 7828, 7831, 7834, 7837, 7840, 7843, 7846, 7849, 7852, 7855, 7858, 7861, 7864, 7867, 7870, 7873
 7876, 7879, 7882, 7885, 7886, 7889, 7892, 7895, 7898, 7901, 7904, 7907, 7910, 7915, 7918, 7921
 7924, 7927, 7930, 7933, 7936, 7939, 7942, 7945, 7948, 7951, 7954, 7957, 7960, 7963, 7966, 7969
 7972, 7975, 7978, 7981, 7984, 7987, 7990, 7991, 7994, 7997, 8000, 8003, 8006, 8009, 8012, 8015
 8018, 8021, 8024, 8027, 8030, 8033
*Elset, elset=_s_Surf-1_S1, internal, instance=Part-5-1
 7670, 7671, 7672, 7673, 7742, 7753, 7754, 7755, 7811
*Elset, elset=_s_Surf-1_S2, internal, instance=Part-5-1
 7704, 7705, 7706, 7738, 7739, 7740, 7741, 7779, 7780, 7781, 7782, 7809, 7810, 7822, 7825, 7828
 7831, 7834, 7837, 7840, 7843, 7846, 7849, 7852, 7855, 7858, 7861, 7864, 7867, 7870, 7873, 7876
 7879, 7882, 7885, 7915, 7918, 7921, 7924, 7927, 7930, 7933, 7936, 7939, 7942, 7945, 7948, 7951
 7954, 7957, 7960, 7963, 7966, 7969, 7972, 7975, 7978, 7981, 7984, 7987, 7990
*Elset, elset=_s_Surf-1_S4, internal, instance=Part-5-1
 7707, 7712, 7717, 7783, 7787, 7791, 7795, 7799, 7886, 7889, 7892, 7895, 7898, 7901, 7904, 7907
 7910, 7991, 7994, 7997, 8000, 8003, 8006, 8009, 8012, 8015, 8018, 8021, 8024, 8027, 8030, 8033
*Surface, type=ELEMENT, name=s_Surf-1
_s_Surf-1_S1, S1
_s_Surf-1_S2, S2
_s_Surf-1_S4, S4
*Elset, elset=__PickedSurf74_S1, internal, instance=Part-5-1
 7670, 7671, 7672, 7673, 7742, 7753, 7754, 7755, 7811
*Elset, elset=__PickedSurf74_S2, internal, instance=Part-5-1
 7704, 7705, 7706, 7738, 7739, 7740, 7741, 7779, 7780, 7781, 7782, 7809, 7810, 7822, 7825, 7828
 7831, 7834, 7837, 7840, 7843, 7846, 7849, 7852, 7855, 7858, 7861, 7864, 7867, 7870, 7873, 7876
 7879, 7882, 7885, 7915, 7918, 7921, 7924, 7927, 7930, 7933, 7936, 7939, 7942, 7945, 7948, 7951
 7954, 7957, 7960, 7963, 7966, 7969, 7972, 7975, 7978, 7981, 7984, 7987, 7990
*Elset, elset=__PickedSurf74_S4, internal, instance=Part-5-1
 7707, 7712, 7717, 7783, 7787, 7791, 7795, 7799, 7886, 7889, 7892, 7895, 7898, 7901, 7904, 7907
 7910, 7991, 7994, 7997, 8000, 8003, 8006, 8009, 8012, 8015, 8018, 8021, 8024, 8027, 8030, 8033
*Surface, type=ELEMENT, name=_PickedSurf74, internal
__PickedSurf74_S1, S1
__PickedSurf74_S2, S2
__PickedSurf74_S4, S4
*Nset, nset="_T-Datum csys-1", internal
Set-16, 
*Transform, nset="_T-Datum csys-1"
          1.,           0.,           0.,           0.,           1.,           0.
*Nset, nset=_T-Cylindrical, internal
_PickedSet78, 
*Transform, nset=_T-Cylindrical, type=C
          0.,           0.,           0.,           0.,           0.,           1.
*End Assembly
** 
** MATERIALS
** 
*Material, name=Marging300Steel
*Elastic
 2.75e+07, 0.33
** 
** BOUNDARY CONDITIONS
** 
** Name: BC-1 Type: Displacement/Rotation
*Boundary
Set-16, 1, 1
Set-16, 2, 2
Set-16, 6, 6
** Name: BC-2 Type: Displacement/Rotation
*Boundary
_PickedSet78, 1, 1
** ----------------------------------------------------------------
** 
** STEP: Step-1
** 
*Step, name=Step-1, nlgeom=NO
Positive Torque
*Static
0.1, 1., 1e-05, 1.
** 
** BOUNDARY CONDITIONS
** 
** Name: BC-1 Type: Displacement/Rotation
*Boundary, op=NEW
Set-16, 1, 1
Set-16, 2, 2
Set-16, 6, 6
** Name: BC-2 Type: Displacement/Rotation
*Boundary, op=NEW
_PickedSet78, 1, 1
** 
** LOADS
** 
** Name: Load-1   Type: Moment
*Cload
Set-32, 6, 4554.6
** 
** OUTPUT REQUESTS
** 
*Restart, write, frequency=0
** 
** FIELD OUTPUT: F-Output-1
** 
*Output, field
*Node Output
U, UR, UT
*Element Output, directions=YES
LE, MISES, MISESMAX, PE, PEEQ, PEMAG, S, YIELDPOT
** 
** HISTORY OUTPUT: H-Output-1
** 
*Output, history, variable=PRESELECT
*End Step
