1

   Abaqus 2023                                  Date 16-Jul-2024   Time 09:58:23
   For use by TEXAS A_M UNIVERSITY SYSTEM under license from Dassault Systemes or its subsidiary.

                                                                                 
                                                                                 
 STEP    1     INCREMENT     1     STEP TIME    0.00    


                        S T E P       1     S T A T I C   A N A L Y S I S


                                                                                          

     AUTOMATIC TIME CONTROL WITH -
          A SUGGESTED INITIAL TIME INCREMENT OF                 1.00    
          AND A TOTAL TIME PERIOD OF                            1.00    
          THE MINIMUM TIME INCREMENT ALLOWED IS                1.000E-05
          THE MAXIMUM TIME INCREMENT ALLOWED IS                 1.00    

     LINEAR EQUATION SOLVER TYPE         DIRECT SPARSE

 CONVERGENCE TOLERANCE PARAMETERS FOR FORCE    
     CRITERION FOR RESIDUAL FORCE     FOR A NONLINEAR PROBLEM          5.000E-03
     CRITERION FOR DISP.    CORRECTION IN A NONLINEAR PROBLEM          1.000E-02
     INITIAL VALUE OF TIME AVERAGE FORCE                               1.000E-02
     AVERAGE FORCE     IS TIME AVERAGE FORCE    
     ALTERNATE CRIT. FOR RESIDUAL FORCE     FOR A NONLINEAR PROBLEM    2.000E-02
     CRITERION FOR ZERO FORCE     RELATIVE TO TIME AVRG. FORCE         1.000E-05
     CRITERION FOR RESIDUAL FORCE     WHEN THERE IS ZERO FLUX          1.000E-05
     CRITERION FOR DISP.    CORRECTION WHEN THERE IS ZERO FLUX         1.000E-03
     CRITERION FOR RESIDUAL FORCE     FOR A LINEAR INCREMENT           1.000E-08
     FIELD CONVERSION RATIO                                             1.00    
     CRITERION FOR ZERO FORCE     REL. TO TIME AVRG. MAX. FORCE        1.000E-05
     CRITERION FOR ZERO DISP.    RELATIVE TO CHARACTERISTIC LENGTH     1.000E-08

 CONVERGENCE TOLERANCE PARAMETERS FOR MOMENT   
     CRITERION FOR RESIDUAL MOMENT    FOR A NONLINEAR PROBLEM          5.000E-03
     CRITERION FOR ROTATION CORRECTION IN A NONLINEAR PROBLEM          1.000E-02
     INITIAL VALUE OF TIME AVERAGE MOMENT                              1.000E-02
     AVERAGE MOMENT    IS TIME AVERAGE MOMENT   
     ALTERNATE CRIT. FOR RESIDUAL MOMENT    FOR A NONLINEAR PROBLEM    2.000E-02
     CRITERION FOR ZERO MOMENT    RELATIVE TO TIME AVRG. MOMENT        1.000E-05
     CRITERION FOR RESIDUAL MOMENT    WHEN THERE IS ZERO FLUX          1.000E-05
     CRITERION FOR ROTATION CORRECTION WHEN THERE IS ZERO FLUX         1.000E-03
     CRITERION FOR RESIDUAL MOMENT    FOR A LINEAR INCREMENT           1.000E-08
     FIELD CONVERSION RATIO                                             1.00    
     CRITERION FOR ZERO MOMENT    REL. TO TIME AVRG. MAX. MOMENT       1.000E-05

     VOLUMETRIC STRAIN COMPATIBILITY TOLERANCE FOR HYBRID SOLIDS       1.000E-05
     AXIAL STRAIN COMPATIBILITY TOLERANCE FOR HYBRID BEAMS             1.000E-05
     TRANS. SHEAR STRAIN COMPATIBILITY TOLERANCE FOR HYBRID BEAMS      1.000E-05
     SOFT CONTACT CONSTRAINT COMPATIBILITY TOLERANCE FOR P>P0          5.000E-03
     SOFT CONTACT CONSTRAINT COMPATIBILITY TOLERANCE FOR P=0.0         0.100    
     CONTACT FORCE ERROR TOLERANCE FOR CONVERT SDI=YES                 1.00    
     DISPLACEMENT COMPATIBILITY TOLERANCE FOR DCOUP ELEMENTS           1.000E-05
     ROTATION COMPATIBILITY TOLERANCE FOR DCOUP ELEMENTS               1.000E-05

 EQUILIBRIUM WILL BE CHECKED FOR SEVERE DISCONTINUITY ITERATIONS

 TIME INCREMENTATION CONTROL PARAMETERS:
     FIRST EQUILIBRIUM ITERATION FOR CONSECUTIVE DIVERGENCE CHECK              4
     EQUILIBRIUM ITERATION AT WHICH LOG. CONVERGENCE RATE CHECK BEGINS         8
     EQUILIBRIUM ITERATION AFTER WHICH ALTERNATE RESIDUAL IS USED              9
     MAXIMUM EQUILIBRIUM ITERATIONS ALLOWED                                   16
     EQUILIBRIUM ITERATION COUNT FOR CUT-BACK IN NEXT INCREMENT               10
     MAXIMUM EQUILIB. ITERS IN TWO INCREMENTS FOR TIME INCREMENT INCREASE      4
     MAXIMUM ITERATIONS FOR SEVERE DISCONTINUITIES                            50
     MAXIMUM ATTEMPTS ALLOWED IN AN INCREMENT                                  5
     MAXIMUM DISCON. ITERS IN TWO INCREMENTS FOR TIME INCREMENT INCREASE      50
     MAXIMUM CONTACT AUGMENTATIONS FOR *SURFACE BEHAVIOR,AUGMENTED LAGRANGE   50
     CUT-BACK FACTOR AFTER DIVERGENCE                                 0.2500    
     CUT-BACK FACTOR FOR TOO SLOW CONVERGENCE                         0.5000    
     CUT-BACK FACTOR AFTER TOO MANY EQUILIBRIUM ITERATIONS            0.7500    
     CUT-BACK FACTOR AFTER TOO MANY SEVERE DISCONTINUITY ITERATIONS   0.2500    
     CUT-BACK FACTOR AFTER PROBLEMS IN ELEMENT ASSEMBLY               0.2500    
     INCREASE FACTOR AFTER TWO INCREMENTS THAT CONVERGE QUICKLY        1.500    
     MAX. TIME INCREMENT INCREASE FACTOR ALLOWED                       1.500    
     MAX. TIME INCREMENT INCREASE FACTOR ALLOWED (DYNAMICS)            1.250    
     MAX. TIME INCREMENT INCREASE FACTOR ALLOWED (DIFFUSION)           2.000    
     MINIMUM TIME INCREMENT RATIO FOR EXTRAPOLATION TO OCCUR          0.1000    
     MAX. RATIO OF TIME INCREMENT TO STABILITY LIMIT                   1.000    
     FRACTION OF STABILITY LIMIT FOR NEW TIME INCREMENT               0.9500    
     TIME INCREMENT INCREASE FACTOR BEFORE A TIME POINT                1.000    
     GLOBAL STABILIZATION CONTROL IS NOT USED

          PRINT OF INCREMENT NUMBER, TIME, ETC., EVERY    1  INCREMENTS

     THE MAXIMUM NUMBER OF INCREMENTS IN THIS STEP IS                     100

     LINEAR EXTRAPOLATION WILL BE USED

     CHARACTERISTIC ELEMENT LENGTH     6.030E-02

     DETAILS REGARDING ACTUAL SOLUTION WAVEFRONT REQUESTED

     DETAILED OUTPUT OF DIAGNOSTICS TO DATABASE REQUESTED

     PRINT OF INCREMENT NUMBER, TIME, ETC., TO THE MESSAGE FILE EVERY     1  INCREMENTS

     COLLECTING MODEL CONSTRAINT INFORMATION FOR OVERCONSTRAINT CHECKS

     COLLECTING STEP CONSTRAINT INFORMATION FOR OVERCONSTRAINT CHECKS


  INCREMENT     1 STARTS. ATTEMPT NUMBER  1, TIME INCREMENT   1.00    
 
	SYMMETRIC DIRECT SPARSE SOLVER RUNNING ON
 	1 HOST:        1 MPI RANK  x 1 THREAD
 	NUMBER OF EQUATIONS:     16560
 	NUMBER OF RHS:           1
 	NUMBER OF FLOPS:         8.535e+08

     CHECK POINT  START OF SOLVER     

     CHECK POINT  END OF SOLVER       

       ELAPSED USER TIME (SEC)      =  0.10000    
       ELAPSED SYSTEM TIME (SEC)    =   0.0000    
       ELAPSED TOTAL CPU TIME (SEC) =  0.10000    
       ELAPSED WALLCLOCK TIME (SEC) =            0
 

 ***WARNING: THE SYSTEM MATRIX HAS 1 NEGATIVE EIGENVALUES.

     NEGATIVE EIGENVALUES MEAN THAT THE SYSTEM MATRIX IS NOT 
     POSITIVE DEFINITE:
     FOR EXAMPLE, A BIFURCATION (BUCKLING) LOAD MAY HAVE BEEN EXCEEDED.
 

 ***WARNING: SOLVER PROBLEM. NUMERICAL SINGULARITY WHEN PROCESSING NODE 
             CUT-1-1.189 D.O.F. 1 RATIO = 4.94124E+12.
 

 ***WARNING: SOLVER PROBLEM. NUMERICAL SINGULARITY WHEN PROCESSING NODE 
             CUT-1-1.189 D.O.F. 3 RATIO = 27.5838E+12 .
 

 ***WARNING: SOLVER PROBLEM. NUMERICAL SINGULARITY WHEN PROCESSING NODE 
             CUT-1-1.76 D.O.F. 1 RATIO = 1.36987E+12.
 

 ***WARNING: SOLVER PROBLEM. NUMERICAL SINGULARITY WHEN PROCESSING NODE 
             CUT-1-1.76 D.O.F. 2 RATIO = 5.53786E+12.
 

 ***WARNING: SOLVER PROBLEM. NUMERICAL SINGULARITY WHEN PROCESSING NODE 
             CUT-1-1.76 D.O.F. 3 RATIO = 7.30006E+12.

               CONVERGENCE CHECKS FOR EQUILIBRIUM ITERATION     1


 AVERAGE FORCE                      1.635E-02   TIME AVG. FORCE       1.635E-02
 LARGEST RESIDUAL FORCE             0.154       AT NODE       5594   DOF  2
   INSTANCE: CUT-1-1                                                                         
 LARGEST INCREMENT OF DISP.         6.571E+07   AT NODE        328   DOF  3
   INSTANCE: PART-1-RIGID-OUTER-1                                                            
 LARGEST CORRECTION TO DISP.        6.571E+07   AT NODE        328   DOF  3
   INSTANCE: PART-1-RIGID-OUTER-1                                                            
          FORCE     EQUILIBRIUM NOT ACHIEVED WITHIN TOLERANCE.

 AVERAGE MOMENT                      0.00       TIME AVG. MOMENT      1.000E-02
 LARGEST RESIDUAL MOMENT           -1.155E-02   AT NODE        142   DOF  6
   INSTANCE: PART-1-RIGID-INNER-1                                                            
 LARGEST INCREMENT OF ROTATION     -2.386E+07   AT NODE        142   DOF  4
   INSTANCE: PART-1-RIGID-INNER-1                                                            
 LARGEST CORRECTION TO ROTATION    -2.386E+07   AT NODE        142   DOF  4
   INSTANCE: PART-1-RIGID-INNER-1                                                            
          THE MOMENT    IS ZERO EVERYWHERE BUT THE MOMENT    RESIDUAL OR
          THE ROTATION CORRECTION IS NON-ZERO
 
	SYMMETRIC DIRECT SPARSE SOLVER RUNNING ON
 	1 HOST:        1 MPI RANK  x 1 THREAD
 	NUMBER OF EQUATIONS:     16560
 	NUMBER OF RHS:           1
 	NUMBER OF FLOPS:         8.535e+08

     CHECK POINT  START OF SOLVER     

     CHECK POINT  END OF SOLVER       

       ELAPSED USER TIME (SEC)      =   0.0000    
       ELAPSED SYSTEM TIME (SEC)    =   0.0000    
       ELAPSED TOTAL CPU TIME (SEC) =   0.0000    
       ELAPSED WALLCLOCK TIME (SEC) =            0
 

 ***WARNING: THE SYSTEM MATRIX HAS 1 NEGATIVE EIGENVALUES.
             EXPLANATIONS ARE SUGGESTED AFTER THE FIRST OCCURRENCE OF THIS MESSAGE.
 

 ***WARNING: SOLVER PROBLEM. NUMERICAL SINGULARITY WHEN PROCESSING NODE 
             CUT-1-1.189 D.O.F. 1 RATIO = 4.94124E+12.
 

 ***WARNING: SOLVER PROBLEM. NUMERICAL SINGULARITY WHEN PROCESSING NODE 
             CUT-1-1.189 D.O.F. 3 RATIO = 27.5838E+12 .
 

 ***WARNING: SOLVER PROBLEM. NUMERICAL SINGULARITY WHEN PROCESSING NODE 
             CUT-1-1.76 D.O.F. 1 RATIO = 1.36987E+12.
 

 ***WARNING: SOLVER PROBLEM. NUMERICAL SINGULARITY WHEN PROCESSING NODE 
             CUT-1-1.76 D.O.F. 2 RATIO = 5.53786E+12.
 

 ***WARNING: SOLVER PROBLEM. NUMERICAL SINGULARITY WHEN PROCESSING NODE 
             CUT-1-1.76 D.O.F. 3 RATIO = 7.30006E+12.

               CONVERGENCE CHECKS FOR EQUILIBRIUM ITERATION     2


 AVERAGE FORCE                      1.643E-02   TIME AVG. FORCE       1.643E-02
 LARGEST RESIDUAL FORCE             0.153       AT NODE       4182   DOF  2
   INSTANCE: CUT-1-1                                                                         
 LARGEST INCREMENT OF DISP.         1.314E+08   AT NODE        328   DOF  3
   INSTANCE: PART-1-RIGID-OUTER-1                                                            
 LARGEST CORRECTION TO DISP.        6.571E+07   AT NODE        328   DOF  3
   INSTANCE: PART-1-RIGID-OUTER-1                                                            
          FORCE     EQUILIBRIUM NOT ACHIEVED WITHIN TOLERANCE.

 AVERAGE MOMENT                      0.00       TIME AVG. MOMENT      1.000E-02
 LARGEST RESIDUAL MOMENT           -4.953E-03   AT NODE        142   DOF  6
   INSTANCE: PART-1-RIGID-INNER-1                                                            
 LARGEST INCREMENT OF ROTATION     -4.771E+07   AT NODE        142   DOF  4
   INSTANCE: PART-1-RIGID-INNER-1                                                            
 LARGEST CORRECTION TO ROTATION    -2.386E+07   AT NODE        142   DOF  4
   INSTANCE: PART-1-RIGID-INNER-1                                                            
          THE MOMENT    IS ZERO EVERYWHERE BUT THE MOMENT    RESIDUAL OR
          THE ROTATION CORRECTION IS NON-ZERO
 
	SYMMETRIC DIRECT SPARSE SOLVER RUNNING ON
 	1 HOST:        1 MPI RANK  x 1 THREAD
 	NUMBER OF EQUATIONS:     16560
 	NUMBER OF RHS:           1
 	NUMBER OF FLOPS:         8.535e+08

     CHECK POINT  START OF SOLVER     

     CHECK POINT  END OF SOLVER       

       ELAPSED USER TIME (SEC)      =   0.0000    
       ELAPSED SYSTEM TIME (SEC)    =   0.0000    
       ELAPSED TOTAL CPU TIME (SEC) =   0.0000    
       ELAPSED WALLCLOCK TIME (SEC) =            0
 

 ***WARNING: THE SYSTEM MATRIX HAS 1 NEGATIVE EIGENVALUES.
             EXPLANATIONS ARE SUGGESTED AFTER THE FIRST OCCURRENCE OF THIS MESSAGE.
 

 ***WARNING: SOLVER PROBLEM. NUMERICAL SINGULARITY WHEN PROCESSING NODE 
             CUT-1-1.189 D.O.F. 1 RATIO = 4.94124E+12.
 

 ***WARNING: SOLVER PROBLEM. NUMERICAL SINGULARITY WHEN PROCESSING NODE 
             CUT-1-1.189 D.O.F. 3 RATIO = 27.5838E+12 .
 

 ***WARNING: SOLVER PROBLEM. NUMERICAL SINGULARITY WHEN PROCESSING NODE 
             CUT-1-1.76 D.O.F. 1 RATIO = 1.36987E+12.
 

 ***WARNING: SOLVER PROBLEM. NUMERICAL SINGULARITY WHEN PROCESSING NODE 
             CUT-1-1.76 D.O.F. 2 RATIO = 5.53786E+12.
 

 ***WARNING: SOLVER PROBLEM. NUMERICAL SINGULARITY WHEN PROCESSING NODE 
             CUT-1-1.76 D.O.F. 3 RATIO = 7.30006E+12.

               CONVERGENCE CHECKS FOR EQUILIBRIUM ITERATION     3


 AVERAGE FORCE                      1.659E-02   TIME AVG. FORCE       1.659E-02
 LARGEST RESIDUAL FORCE             0.215       AT NODE       5594   DOF  2
   INSTANCE: CUT-1-1                                                                         
 LARGEST INCREMENT OF DISP.         1.971E+08   AT NODE        328   DOF  3
   INSTANCE: PART-1-RIGID-OUTER-1                                                            
 LARGEST CORRECTION TO DISP.        6.571E+07   AT NODE        328   DOF  3
   INSTANCE: PART-1-RIGID-OUTER-1                                                            
          FORCE     EQUILIBRIUM NOT ACHIEVED WITHIN TOLERANCE.

 AVERAGE MOMENT                      0.00       TIME AVG. MOMENT      1.000E-02
 LARGEST RESIDUAL MOMENT            1.955E-02   AT NODE        142   DOF  6
   INSTANCE: PART-1-RIGID-INNER-1                                                            
 LARGEST INCREMENT OF ROTATION     -7.157E+07   AT NODE        142   DOF  4
   INSTANCE: PART-1-RIGID-INNER-1                                                            
 LARGEST CORRECTION TO ROTATION    -2.386E+07   AT NODE        142   DOF  4
   INSTANCE: PART-1-RIGID-INNER-1                                                            
          THE MOMENT    IS ZERO EVERYWHERE BUT THE MOMENT    RESIDUAL OR
          THE ROTATION CORRECTION IS NON-ZERO
 
	SYMMETRIC DIRECT SPARSE SOLVER RUNNING ON
 	1 HOST:        1 MPI RANK  x 1 THREAD
 	NUMBER OF EQUATIONS:     16560
 	NUMBER OF RHS:           1
 	NUMBER OF FLOPS:         8.535e+08

     CHECK POINT  START OF SOLVER     

     CHECK POINT  END OF SOLVER       

       ELAPSED USER TIME (SEC)      =  0.10000    
       ELAPSED SYSTEM TIME (SEC)    =   0.0000    
       ELAPSED TOTAL CPU TIME (SEC) =  0.10000    
       ELAPSED WALLCLOCK TIME (SEC) =            0
 

 ***WARNING: THE SYSTEM MATRIX HAS 1 NEGATIVE EIGENVALUES.
             EXPLANATIONS ARE SUGGESTED AFTER THE FIRST OCCURRENCE OF THIS MESSAGE.
 

 ***WARNING: SOLVER PROBLEM. NUMERICAL SINGULARITY WHEN PROCESSING NODE 
             CUT-1-1.189 D.O.F. 1 RATIO = 4.94124E+12.
 

 ***WARNING: SOLVER PROBLEM. NUMERICAL SINGULARITY WHEN PROCESSING NODE 
             CUT-1-1.189 D.O.F. 3 RATIO = 27.5838E+12 .
 

 ***WARNING: SOLVER PROBLEM. NUMERICAL SINGULARITY WHEN PROCESSING NODE 
             CUT-1-1.76 D.O.F. 1 RATIO = 1.36987E+12.
 

 ***WARNING: SOLVER PROBLEM. NUMERICAL SINGULARITY WHEN PROCESSING NODE 
             CUT-1-1.76 D.O.F. 2 RATIO = 5.53786E+12.
 

 ***WARNING: SOLVER PROBLEM. NUMERICAL SINGULARITY WHEN PROCESSING NODE 
             CUT-1-1.76 D.O.F. 3 RATIO = 7.30006E+12.

               CONVERGENCE CHECKS FOR EQUILIBRIUM ITERATION     4


 AVERAGE FORCE                      1.671E-02   TIME AVG. FORCE       1.671E-02
 LARGEST RESIDUAL FORCE            -0.145       AT NODE       2779   DOF  2
   INSTANCE: CUT-1-1                                                                         
 LARGEST INCREMENT OF DISP.         2.628E+08   AT NODE        328   DOF  3
   INSTANCE: PART-1-RIGID-OUTER-1                                                            
 LARGEST CORRECTION TO DISP.        6.571E+07   AT NODE        328   DOF  3
   INSTANCE: PART-1-RIGID-OUTER-1                                                            
          FORCE     EQUILIBRIUM NOT ACHIEVED WITHIN TOLERANCE.

 AVERAGE MOMENT                      0.00       TIME AVG. MOMENT      1.000E-02
 LARGEST RESIDUAL MOMENT           -3.395E-02   AT NODE        142   DOF  6
   INSTANCE: PART-1-RIGID-INNER-1                                                            
 LARGEST INCREMENT OF ROTATION     -9.542E+07   AT NODE        142   DOF  4
   INSTANCE: PART-1-RIGID-INNER-1                                                            
 LARGEST CORRECTION TO ROTATION    -2.386E+07   AT NODE        142   DOF  4
   INSTANCE: PART-1-RIGID-INNER-1                                                            
          THE MOMENT    IS ZERO EVERYWHERE BUT THE MOMENT    RESIDUAL OR
          THE ROTATION CORRECTION IS NON-ZERO
 
	SYMMETRIC DIRECT SPARSE SOLVER RUNNING ON
 	1 HOST:        1 MPI RANK  x 1 THREAD
 	NUMBER OF EQUATIONS:     16560
 	NUMBER OF RHS:           1
 	NUMBER OF FLOPS:         8.535e+08

     CHECK POINT  START OF SOLVER     

     CHECK POINT  END OF SOLVER       

       ELAPSED USER TIME (SEC)      =  0.10000    
       ELAPSED SYSTEM TIME (SEC)    =   0.0000    
       ELAPSED TOTAL CPU TIME (SEC) =  0.10000    
       ELAPSED WALLCLOCK TIME (SEC) =            0
 

 ***WARNING: THE SYSTEM MATRIX HAS 1 NEGATIVE EIGENVALUES.
             EXPLANATIONS ARE SUGGESTED AFTER THE FIRST OCCURRENCE OF THIS MESSAGE.
 

 ***WARNING: SOLVER PROBLEM. NUMERICAL SINGULARITY WHEN PROCESSING NODE 
             CUT-1-1.189 D.O.F. 1 RATIO = 4.94124E+12.
 

 ***WARNING: SOLVER PROBLEM. NUMERICAL SINGULARITY WHEN PROCESSING NODE 
             CUT-1-1.189 D.O.F. 3 RATIO = 27.5838E+12 .
 

 ***WARNING: SOLVER PROBLEM. NUMERICAL SINGULARITY WHEN PROCESSING NODE 
             CUT-1-1.76 D.O.F. 1 RATIO = 1.36987E+12.
 

 ***WARNING: SOLVER PROBLEM. NUMERICAL SINGULARITY WHEN PROCESSING NODE 
             CUT-1-1.76 D.O.F. 2 RATIO = 5.53786E+12.
 

 ***WARNING: SOLVER PROBLEM. NUMERICAL SINGULARITY WHEN PROCESSING NODE 
             CUT-1-1.76 D.O.F. 3 RATIO = 7.30006E+12.

               CONVERGENCE CHECKS FOR EQUILIBRIUM ITERATION     5


 AVERAGE FORCE                      1.697E-02   TIME AVG. FORCE       1.697E-02
 LARGEST RESIDUAL FORCE            -0.185       AT NODE       4156   DOF  2
   INSTANCE: CUT-1-1                                                                         
 LARGEST INCREMENT OF DISP.         3.285E+08   AT NODE        328   DOF  3
   INSTANCE: PART-1-RIGID-OUTER-1                                                            
 LARGEST CORRECTION TO DISP.        6.571E+07   AT NODE        328   DOF  3
   INSTANCE: PART-1-RIGID-OUTER-1                                                            
          FORCE     EQUILIBRIUM NOT ACHIEVED WITHIN TOLERANCE.

 AVERAGE MOMENT                      0.00       TIME AVG. MOMENT      1.000E-02
 LARGEST RESIDUAL MOMENT            6.667E-03   AT NODE        481   DOF  6
   INSTANCE: PART-1-RIGID-OUTER-1                                                            
 LARGEST INCREMENT OF ROTATION     -1.193E+08   AT NODE        142   DOF  4
   INSTANCE: PART-1-RIGID-INNER-1                                                            
 LARGEST CORRECTION TO ROTATION    -2.386E+07   AT NODE        481   DOF  4
   INSTANCE: PART-1-RIGID-OUTER-1                                                            
          THE MOMENT    IS ZERO EVERYWHERE BUT THE MOMENT    RESIDUAL OR
          THE ROTATION CORRECTION IS NON-ZERO
 
	SYMMETRIC DIRECT SPARSE SOLVER RUNNING ON
 	1 HOST:        1 MPI RANK  x 1 THREAD
 	NUMBER OF EQUATIONS:     16560
 	NUMBER OF RHS:           1
 	NUMBER OF FLOPS:         8.535e+08

     CHECK POINT  START OF SOLVER     

     CHECK POINT  END OF SOLVER       

       ELAPSED USER TIME (SEC)      =  0.10000    
       ELAPSED SYSTEM TIME (SEC)    =   0.0000    
       ELAPSED TOTAL CPU TIME (SEC) =  0.10000    
       ELAPSED WALLCLOCK TIME (SEC) =            0
 

 ***WARNING: THE SYSTEM MATRIX HAS 1 NEGATIVE EIGENVALUES.
             EXPLANATIONS ARE SUGGESTED AFTER THE FIRST OCCURRENCE OF THIS MESSAGE.
 

 ***WARNING: SOLVER PROBLEM. NUMERICAL SINGULARITY WHEN PROCESSING NODE 
             CUT-1-1.189 D.O.F. 1 RATIO = 4.94124E+12.
 

 ***WARNING: SOLVER PROBLEM. NUMERICAL SINGULARITY WHEN PROCESSING NODE 
             CUT-1-1.189 D.O.F. 3 RATIO = 27.5838E+12 .
 

 ***WARNING: SOLVER PROBLEM. NUMERICAL SINGULARITY WHEN PROCESSING NODE 
             CUT-1-1.76 D.O.F. 1 RATIO = 1.36987E+12.
 

 ***WARNING: SOLVER PROBLEM. NUMERICAL SINGULARITY WHEN PROCESSING NODE 
             CUT-1-1.76 D.O.F. 2 RATIO = 5.53786E+12.
 

 ***WARNING: SOLVER PROBLEM. NUMERICAL SINGULARITY WHEN PROCESSING NODE 
             CUT-1-1.76 D.O.F. 3 RATIO = 7.30006E+12.

               CONVERGENCE CHECKS FOR EQUILIBRIUM ITERATION     6


 AVERAGE FORCE                      1.725E-02   TIME AVG. FORCE       1.725E-02
 LARGEST RESIDUAL FORCE            -0.218       AT NODE       2788   DOF  2
   INSTANCE: CUT-1-1                                                                         
 LARGEST INCREMENT OF DISP.         3.943E+08   AT NODE        328   DOF  3
   INSTANCE: PART-1-RIGID-OUTER-1                                                            
 LARGEST CORRECTION TO DISP.        6.571E+07   AT NODE        328   DOF  3
   INSTANCE: PART-1-RIGID-OUTER-1                                                            
          FORCE     EQUILIBRIUM NOT ACHIEVED WITHIN TOLERANCE.

 AVERAGE MOMENT                      0.00       TIME AVG. MOMENT      1.000E-02
 LARGEST RESIDUAL MOMENT           -3.366E-02   AT NODE        142   DOF  6
   INSTANCE: PART-1-RIGID-INNER-1                                                            
 LARGEST INCREMENT OF ROTATION     -1.431E+08   AT NODE        142   DOF  4
   INSTANCE: PART-1-RIGID-INNER-1                                                            
 LARGEST CORRECTION TO ROTATION    -2.386E+07   AT NODE        142   DOF  4
   INSTANCE: PART-1-RIGID-INNER-1                                                            
          THE MOMENT    IS ZERO EVERYWHERE BUT THE MOMENT    RESIDUAL OR
          THE ROTATION CORRECTION IS NON-ZERO
 

 ***NOTE: THE SOLUTION APPEARS TO BE DIVERGING. CONVERGENCE IS JUDGED UNLIKELY.


  INCREMENT     1 STARTS. ATTEMPT NUMBER  2, TIME INCREMENT  0.250    
 
	SYMMETRIC DIRECT SPARSE SOLVER RUNNING ON
 	1 HOST:        1 MPI RANK  x 1 THREAD
 	NUMBER OF EQUATIONS:     16560
 	NUMBER OF RHS:           1
 	NUMBER OF FLOPS:         8.535e+08

     CHECK POINT  START OF SOLVER     

     CHECK POINT  END OF SOLVER       

       ELAPSED USER TIME (SEC)      =   0.0000    
       ELAPSED SYSTEM TIME (SEC)    =   0.0000    
       ELAPSED TOTAL CPU TIME (SEC) =   0.0000    
       ELAPSED WALLCLOCK TIME (SEC) =            0
 

 ***WARNING: THE SYSTEM MATRIX HAS 1 NEGATIVE EIGENVALUES.
             EXPLANATIONS ARE SUGGESTED AFTER THE FIRST OCCURRENCE OF THIS MESSAGE.
 

 ***WARNING: SOLVER PROBLEM. NUMERICAL SINGULARITY WHEN PROCESSING NODE 
             CUT-1-1.189 D.O.F. 1 RATIO = 4.94124E+12.
 

 ***WARNING: SOLVER PROBLEM. NUMERICAL SINGULARITY WHEN PROCESSING NODE 
             CUT-1-1.189 D.O.F. 3 RATIO = 27.5838E+12 .
 

 ***WARNING: SOLVER PROBLEM. NUMERICAL SINGULARITY WHEN PROCESSING NODE 
             CUT-1-1.76 D.O.F. 1 RATIO = 1.36987E+12.
 

 ***WARNING: SOLVER PROBLEM. NUMERICAL SINGULARITY WHEN PROCESSING NODE 
             CUT-1-1.76 D.O.F. 2 RATIO = 5.53786E+12.
 

 ***WARNING: SOLVER PROBLEM. NUMERICAL SINGULARITY WHEN PROCESSING NODE 
             CUT-1-1.76 D.O.F. 3 RATIO = 7.30006E+12.

               CONVERGENCE CHECKS FOR EQUILIBRIUM ITERATION     1


 AVERAGE FORCE                      4.087E-03   TIME AVG. FORCE       4.087E-03
 LARGEST RESIDUAL FORCE             3.858E-02   AT NODE       5594   DOF  2
   INSTANCE: CUT-1-1                                                                         
 LARGEST INCREMENT OF DISP.         1.643E+07   AT NODE        328   DOF  3
   INSTANCE: PART-1-RIGID-OUTER-1                                                            
 LARGEST CORRECTION TO DISP.        1.643E+07   AT NODE        328   DOF  3
   INSTANCE: PART-1-RIGID-OUTER-1                                                            
          FORCE     EQUILIBRIUM NOT ACHIEVED WITHIN TOLERANCE.

 AVERAGE MOMENT                      0.00       TIME AVG. MOMENT      1.000E-02
 LARGEST RESIDUAL MOMENT           -2.887E-03   AT NODE        142   DOF  6
   INSTANCE: PART-1-RIGID-INNER-1                                                            
 LARGEST INCREMENT OF ROTATION     -5.964E+06   AT NODE        142   DOF  4
   INSTANCE: PART-1-RIGID-INNER-1                                                            
 LARGEST CORRECTION TO ROTATION    -5.964E+06   AT NODE        142   DOF  4
   INSTANCE: PART-1-RIGID-INNER-1                                                            
          THE MOMENT    IS ZERO EVERYWHERE BUT THE MOMENT    RESIDUAL OR
          THE ROTATION CORRECTION IS NON-ZERO
 
	SYMMETRIC DIRECT SPARSE SOLVER RUNNING ON
 	1 HOST:        1 MPI RANK  x 1 THREAD
 	NUMBER OF EQUATIONS:     16560
 	NUMBER OF RHS:           1
 	NUMBER OF FLOPS:         8.535e+08

     CHECK POINT  START OF SOLVER     

     CHECK POINT  END OF SOLVER       

       ELAPSED USER TIME (SEC)      =   0.0000    
       ELAPSED SYSTEM TIME (SEC)    =   0.0000    
       ELAPSED TOTAL CPU TIME (SEC) =   0.0000    
       ELAPSED WALLCLOCK TIME (SEC) =            0
 

 ***WARNING: THE SYSTEM MATRIX HAS 1 NEGATIVE EIGENVALUES.
             EXPLANATIONS ARE SUGGESTED AFTER THE FIRST OCCURRENCE OF THIS MESSAGE.
 

 ***WARNING: SOLVER PROBLEM. NUMERICAL SINGULARITY WHEN PROCESSING NODE 
             CUT-1-1.189 D.O.F. 1 RATIO = 4.94124E+12.
 

 ***WARNING: SOLVER PROBLEM. NUMERICAL SINGULARITY WHEN PROCESSING NODE 
             CUT-1-1.189 D.O.F. 3 RATIO = 27.5838E+12 .
 

 ***WARNING: SOLVER PROBLEM. NUMERICAL SINGULARITY WHEN PROCESSING NODE 
             CUT-1-1.76 D.O.F. 1 RATIO = 1.36987E+12.
 

 ***WARNING: SOLVER PROBLEM. NUMERICAL SINGULARITY WHEN PROCESSING NODE 
             CUT-1-1.76 D.O.F. 2 RATIO = 5.53786E+12.
 

 ***WARNING: SOLVER PROBLEM. NUMERICAL SINGULARITY WHEN PROCESSING NODE 
             CUT-1-1.76 D.O.F. 3 RATIO = 7.30006E+12.

               CONVERGENCE CHECKS FOR EQUILIBRIUM ITERATION     2


 AVERAGE FORCE                      4.107E-03   TIME AVG. FORCE       4.107E-03
 LARGEST RESIDUAL FORCE             3.835E-02   AT NODE       4182   DOF  2
   INSTANCE: CUT-1-1                                                                         
 LARGEST INCREMENT OF DISP.         3.285E+07   AT NODE        328   DOF  3
   INSTANCE: PART-1-RIGID-OUTER-1                                                            
 LARGEST CORRECTION TO DISP.        1.643E+07   AT NODE        328   DOF  3
   INSTANCE: PART-1-RIGID-OUTER-1                                                            
          FORCE     EQUILIBRIUM NOT ACHIEVED WITHIN TOLERANCE.

 AVERAGE MOMENT                      0.00       TIME AVG. MOMENT      1.000E-02
 LARGEST RESIDUAL MOMENT           -1.238E-03   AT NODE        142   DOF  6
   INSTANCE: PART-1-RIGID-INNER-1                                                            
 LARGEST INCREMENT OF ROTATION     -1.193E+07   AT NODE        142   DOF  4
   INSTANCE: PART-1-RIGID-INNER-1                                                            
 LARGEST CORRECTION TO ROTATION    -5.964E+06   AT NODE        142   DOF  4
   INSTANCE: PART-1-RIGID-INNER-1                                                            
          THE MOMENT    IS ZERO EVERYWHERE BUT THE MOMENT    RESIDUAL OR
          THE ROTATION CORRECTION IS NON-ZERO
 
	SYMMETRIC DIRECT SPARSE SOLVER RUNNING ON
 	1 HOST:        1 MPI RANK  x 1 THREAD
 	NUMBER OF EQUATIONS:     16560
 	NUMBER OF RHS:           1
 	NUMBER OF FLOPS:         8.535e+08

     CHECK POINT  START OF SOLVER     

     CHECK POINT  END OF SOLVER       

       ELAPSED USER TIME (SEC)      =  0.10000    
       ELAPSED SYSTEM TIME (SEC)    =   0.0000    
       ELAPSED TOTAL CPU TIME (SEC) =  0.10000    
       ELAPSED WALLCLOCK TIME (SEC) =            1
 

 ***WARNING: THE SYSTEM MATRIX HAS 1 NEGATIVE EIGENVALUES.
             EXPLANATIONS ARE SUGGESTED AFTER THE FIRST OCCURRENCE OF THIS MESSAGE.
 

 ***WARNING: SOLVER PROBLEM. NUMERICAL SINGULARITY WHEN PROCESSING NODE 
             CUT-1-1.189 D.O.F. 1 RATIO = 4.94124E+12.
 

 ***WARNING: SOLVER PROBLEM. NUMERICAL SINGULARITY WHEN PROCESSING NODE 
             CUT-1-1.189 D.O.F. 3 RATIO = 27.5838E+12 .
 

 ***WARNING: SOLVER PROBLEM. NUMERICAL SINGULARITY WHEN PROCESSING NODE 
             CUT-1-1.76 D.O.F. 1 RATIO = 1.36987E+12.
 

 ***WARNING: SOLVER PROBLEM. NUMERICAL SINGULARITY WHEN PROCESSING NODE 
             CUT-1-1.76 D.O.F. 2 RATIO = 5.53786E+12.
 

 ***WARNING: SOLVER PROBLEM. NUMERICAL SINGULARITY WHEN PROCESSING NODE 
             CUT-1-1.76 D.O.F. 3 RATIO = 7.30006E+12.

               CONVERGENCE CHECKS FOR EQUILIBRIUM ITERATION     3


 AVERAGE FORCE                      4.147E-03   TIME AVG. FORCE       4.147E-03
 LARGEST RESIDUAL FORCE             5.379E-02   AT NODE       5594   DOF  2
   INSTANCE: CUT-1-1                                                                         
 LARGEST INCREMENT OF DISP.         4.928E+07   AT NODE        328   DOF  3
   INSTANCE: PART-1-RIGID-OUTER-1                                                            
 LARGEST CORRECTION TO DISP.        1.643E+07   AT NODE        328   DOF  3
   INSTANCE: PART-1-RIGID-OUTER-1                                                            
          FORCE     EQUILIBRIUM NOT ACHIEVED WITHIN TOLERANCE.

 AVERAGE MOMENT                      0.00       TIME AVG. MOMENT      1.000E-02
 LARGEST RESIDUAL MOMENT            4.888E-03   AT NODE        142   DOF  6
   INSTANCE: PART-1-RIGID-INNER-1                                                            
 LARGEST INCREMENT OF ROTATION     -1.789E+07   AT NODE        142   DOF  4
   INSTANCE: PART-1-RIGID-INNER-1                                                            
 LARGEST CORRECTION TO ROTATION    -5.964E+06   AT NODE        142   DOF  4
   INSTANCE: PART-1-RIGID-INNER-1                                                            
          THE MOMENT    IS ZERO EVERYWHERE BUT THE MOMENT    RESIDUAL OR
          THE ROTATION CORRECTION IS NON-ZERO
 
	SYMMETRIC DIRECT SPARSE SOLVER RUNNING ON
 	1 HOST:        1 MPI RANK  x 1 THREAD
 	NUMBER OF EQUATIONS:     16560
 	NUMBER OF RHS:           1
 	NUMBER OF FLOPS:         8.535e+08

     CHECK POINT  START OF SOLVER     

     CHECK POINT  END OF SOLVER       

       ELAPSED USER TIME (SEC)      =  0.10000    
       ELAPSED SYSTEM TIME (SEC)    =   0.0000    
       ELAPSED TOTAL CPU TIME (SEC) =  0.10000    
       ELAPSED WALLCLOCK TIME (SEC) =            0
 

 ***WARNING: THE SYSTEM MATRIX HAS 1 NEGATIVE EIGENVALUES.
             EXPLANATIONS ARE SUGGESTED AFTER THE FIRST OCCURRENCE OF THIS MESSAGE.
 

 ***WARNING: SOLVER PROBLEM. NUMERICAL SINGULARITY WHEN PROCESSING NODE 
             CUT-1-1.189 D.O.F. 1 RATIO = 4.94124E+12.
 

 ***WARNING: SOLVER PROBLEM. NUMERICAL SINGULARITY WHEN PROCESSING NODE 
             CUT-1-1.189 D.O.F. 3 RATIO = 27.5838E+12 .
 

 ***WARNING: SOLVER PROBLEM. NUMERICAL SINGULARITY WHEN PROCESSING NODE 
             CUT-1-1.76 D.O.F. 1 RATIO = 1.36987E+12.
 

 ***WARNING: SOLVER PROBLEM. NUMERICAL SINGULARITY WHEN PROCESSING NODE 
             CUT-1-1.76 D.O.F. 2 RATIO = 5.53786E+12.
 

 ***WARNING: SOLVER PROBLEM. NUMERICAL SINGULARITY WHEN PROCESSING NODE 
             CUT-1-1.76 D.O.F. 3 RATIO = 7.30006E+12.

               CONVERGENCE CHECKS FOR EQUILIBRIUM ITERATION     4


 AVERAGE FORCE                      4.177E-03   TIME AVG. FORCE       4.177E-03
 LARGEST RESIDUAL FORCE            -3.619E-02   AT NODE       2779   DOF  2
   INSTANCE: CUT-1-1                                                                         
 LARGEST INCREMENT OF DISP.         6.571E+07   AT NODE        328   DOF  3
   INSTANCE: PART-1-RIGID-OUTER-1                                                            
 LARGEST CORRECTION TO DISP.        1.643E+07   AT NODE        328   DOF  3
   INSTANCE: PART-1-RIGID-OUTER-1                                                            
          FORCE     EQUILIBRIUM NOT ACHIEVED WITHIN TOLERANCE.

 AVERAGE MOMENT                      0.00       TIME AVG. MOMENT      1.000E-02
 LARGEST RESIDUAL MOMENT           -8.486E-03   AT NODE        142   DOF  6
   INSTANCE: PART-1-RIGID-INNER-1                                                            
 LARGEST INCREMENT OF ROTATION     -2.386E+07   AT NODE        142   DOF  4
   INSTANCE: PART-1-RIGID-INNER-1                                                            
 LARGEST CORRECTION TO ROTATION    -5.964E+06   AT NODE        142   DOF  4
   INSTANCE: PART-1-RIGID-INNER-1                                                            
          THE MOMENT    IS ZERO EVERYWHERE BUT THE MOMENT    RESIDUAL OR
          THE ROTATION CORRECTION IS NON-ZERO
 
	SYMMETRIC DIRECT SPARSE SOLVER RUNNING ON
 	1 HOST:        1 MPI RANK  x 1 THREAD
 	NUMBER OF EQUATIONS:     16560
 	NUMBER OF RHS:           1
 	NUMBER OF FLOPS:         8.535e+08

     CHECK POINT  START OF SOLVER     

     CHECK POINT  END OF SOLVER       

       ELAPSED USER TIME (SEC)      =  0.10000    
       ELAPSED SYSTEM TIME (SEC)    =   0.0000    
       ELAPSED TOTAL CPU TIME (SEC) =  0.10000    
       ELAPSED WALLCLOCK TIME (SEC) =            0
 

 ***WARNING: THE SYSTEM MATRIX HAS 1 NEGATIVE EIGENVALUES.
             EXPLANATIONS ARE SUGGESTED AFTER THE FIRST OCCURRENCE OF THIS MESSAGE.
 

 ***WARNING: SOLVER PROBLEM. NUMERICAL SINGULARITY WHEN PROCESSING NODE 
             CUT-1-1.189 D.O.F. 1 RATIO = 4.94124E+12.
 

 ***WARNING: SOLVER PROBLEM. NUMERICAL SINGULARITY WHEN PROCESSING NODE 
             CUT-1-1.189 D.O.F. 3 RATIO = 27.5838E+12 .
 

 ***WARNING: SOLVER PROBLEM. NUMERICAL SINGULARITY WHEN PROCESSING NODE 
             CUT-1-1.76 D.O.F. 1 RATIO = 1.36987E+12.
 

 ***WARNING: SOLVER PROBLEM. NUMERICAL SINGULARITY WHEN PROCESSING NODE 
             CUT-1-1.76 D.O.F. 2 RATIO = 5.53786E+12.
 

 ***WARNING: SOLVER PROBLEM. NUMERICAL SINGULARITY WHEN PROCESSING NODE 
             CUT-1-1.76 D.O.F. 3 RATIO = 7.30006E+12.

               CONVERGENCE CHECKS FOR EQUILIBRIUM ITERATION     5


 AVERAGE FORCE                      4.243E-03   TIME AVG. FORCE       4.243E-03
 LARGEST RESIDUAL FORCE            -4.627E-02   AT NODE       4156   DOF  2
   INSTANCE: CUT-1-1                                                                         
 LARGEST INCREMENT OF DISP.         8.214E+07   AT NODE        328   DOF  3
   INSTANCE: PART-1-RIGID-OUTER-1                                                            
 LARGEST CORRECTION TO DISP.        1.643E+07   AT NODE        328   DOF  3
   INSTANCE: PART-1-RIGID-OUTER-1                                                            
          FORCE     EQUILIBRIUM NOT ACHIEVED WITHIN TOLERANCE.

 AVERAGE MOMENT                      0.00       TIME AVG. MOMENT      1.000E-02
 LARGEST RESIDUAL MOMENT            1.667E-03   AT NODE        481   DOF  6
   INSTANCE: PART-1-RIGID-OUTER-1                                                            
 LARGEST INCREMENT OF ROTATION     -2.982E+07   AT NODE        142   DOF  4
   INSTANCE: PART-1-RIGID-INNER-1                                                            
 LARGEST CORRECTION TO ROTATION    -5.964E+06   AT NODE        481   DOF  4
   INSTANCE: PART-1-RIGID-OUTER-1                                                            
          THE MOMENT    IS ZERO EVERYWHERE BUT THE MOMENT    RESIDUAL OR
          THE ROTATION CORRECTION IS NON-ZERO
 
	SYMMETRIC DIRECT SPARSE SOLVER RUNNING ON
 	1 HOST:        1 MPI RANK  x 1 THREAD
 	NUMBER OF EQUATIONS:     16560
 	NUMBER OF RHS:           1
 	NUMBER OF FLOPS:         8.535e+08

     CHECK POINT  START OF SOLVER     

     CHECK POINT  END OF SOLVER       

       ELAPSED USER TIME (SEC)      =   0.0000    
       ELAPSED SYSTEM TIME (SEC)    =   0.0000    
       ELAPSED TOTAL CPU TIME (SEC) =   0.0000    
       ELAPSED WALLCLOCK TIME (SEC) =            0
 

 ***WARNING: THE SYSTEM MATRIX HAS 1 NEGATIVE EIGENVALUES.
             EXPLANATIONS ARE SUGGESTED AFTER THE FIRST OCCURRENCE OF THIS MESSAGE.
 

 ***WARNING: SOLVER PROBLEM. NUMERICAL SINGULARITY WHEN PROCESSING NODE 
             CUT-1-1.189 D.O.F. 1 RATIO = 4.94124E+12.
 

 ***WARNING: SOLVER PROBLEM. NUMERICAL SINGULARITY WHEN PROCESSING NODE 
             CUT-1-1.189 D.O.F. 3 RATIO = 27.5838E+12 .
 

 ***WARNING: SOLVER PROBLEM. NUMERICAL SINGULARITY WHEN PROCESSING NODE 
             CUT-1-1.76 D.O.F. 1 RATIO = 1.36987E+12.
 

 ***WARNING: SOLVER PROBLEM. NUMERICAL SINGULARITY WHEN PROCESSING NODE 
             CUT-1-1.76 D.O.F. 2 RATIO = 5.53786E+12.
 

 ***WARNING: SOLVER PROBLEM. NUMERICAL SINGULARITY WHEN PROCESSING NODE 
             CUT-1-1.76 D.O.F. 3 RATIO = 7.30006E+12.

               CONVERGENCE CHECKS FOR EQUILIBRIUM ITERATION     6


 AVERAGE FORCE                      4.313E-03   TIME AVG. FORCE       4.313E-03
 LARGEST RESIDUAL FORCE            -5.448E-02   AT NODE       2788   DOF  2
   INSTANCE: CUT-1-1                                                                         
 LARGEST INCREMENT OF DISP.         9.856E+07   AT NODE        328   DOF  3
   INSTANCE: PART-1-RIGID-OUTER-1                                                            
 LARGEST CORRECTION TO DISP.        1.643E+07   AT NODE        328   DOF  3
   INSTANCE: PART-1-RIGID-OUTER-1                                                            
          FORCE     EQUILIBRIUM NOT ACHIEVED WITHIN TOLERANCE.

 AVERAGE MOMENT                      0.00       TIME AVG. MOMENT      1.000E-02
 LARGEST RESIDUAL MOMENT           -8.414E-03   AT NODE        142   DOF  6
   INSTANCE: PART-1-RIGID-INNER-1                                                            
 LARGEST INCREMENT OF ROTATION     -3.578E+07   AT NODE        142   DOF  4
   INSTANCE: PART-1-RIGID-INNER-1                                                            
 LARGEST CORRECTION TO ROTATION    -5.964E+06   AT NODE        142   DOF  4
   INSTANCE: PART-1-RIGID-INNER-1                                                            
          THE MOMENT    IS ZERO EVERYWHERE BUT THE MOMENT    RESIDUAL OR
          THE ROTATION CORRECTION IS NON-ZERO
 

 ***NOTE: THE SOLUTION APPEARS TO BE DIVERGING. CONVERGENCE IS JUDGED UNLIKELY.


  INCREMENT     1 STARTS. ATTEMPT NUMBER  3, TIME INCREMENT  6.250E-02
 
	SYMMETRIC DIRECT SPARSE SOLVER RUNNING ON
 	1 HOST:        1 MPI RANK  x 1 THREAD
 	NUMBER OF EQUATIONS:     16560
 	NUMBER OF RHS:           1
 	NUMBER OF FLOPS:         8.535e+08

     CHECK POINT  START OF SOLVER     

     CHECK POINT  END OF SOLVER       

       ELAPSED USER TIME (SEC)      =  0.10000    
       ELAPSED SYSTEM TIME (SEC)    =   0.0000    
       ELAPSED TOTAL CPU TIME (SEC) =  0.10000    
       ELAPSED WALLCLOCK TIME (SEC) =            0
 

 ***WARNING: THE SYSTEM MATRIX HAS 1 NEGATIVE EIGENVALUES.
             EXPLANATIONS ARE SUGGESTED AFTER THE FIRST OCCURRENCE OF THIS MESSAGE.
 

 ***WARNING: SOLVER PROBLEM. NUMERICAL SINGULARITY WHEN PROCESSING NODE 
             CUT-1-1.189 D.O.F. 1 RATIO = 4.94124E+12.
 

 ***WARNING: SOLVER PROBLEM. NUMERICAL SINGULARITY WHEN PROCESSING NODE 
             CUT-1-1.189 D.O.F. 3 RATIO = 27.5838E+12 .
 

 ***WARNING: SOLVER PROBLEM. NUMERICAL SINGULARITY WHEN PROCESSING NODE 
             CUT-1-1.76 D.O.F. 1 RATIO = 1.36987E+12.
 

 ***WARNING: SOLVER PROBLEM. NUMERICAL SINGULARITY WHEN PROCESSING NODE 
             CUT-1-1.76 D.O.F. 2 RATIO = 5.53786E+12.
 

 ***WARNING: SOLVER PROBLEM. NUMERICAL SINGULARITY WHEN PROCESSING NODE 
             CUT-1-1.76 D.O.F. 3 RATIO = 7.30006E+12.

               CONVERGENCE CHECKS FOR EQUILIBRIUM ITERATION     1


 AVERAGE FORCE                      1.022E-03   TIME AVG. FORCE       1.022E-03
 LARGEST RESIDUAL FORCE             9.644E-03   AT NODE       5594   DOF  2
   INSTANCE: CUT-1-1                                                                         
 LARGEST INCREMENT OF DISP.         4.107E+06   AT NODE        328   DOF  3
   INSTANCE: PART-1-RIGID-OUTER-1                                                            
 LARGEST CORRECTION TO DISP.        4.107E+06   AT NODE        328   DOF  3
   INSTANCE: PART-1-RIGID-OUTER-1                                                            
          FORCE     EQUILIBRIUM NOT ACHIEVED WITHIN TOLERANCE.

 AVERAGE MOMENT                      0.00       TIME AVG. MOMENT      1.000E-02
 LARGEST RESIDUAL MOMENT           -7.218E-04   AT NODE        142   DOF  6
   INSTANCE: PART-1-RIGID-INNER-1                                                            
 LARGEST INCREMENT OF ROTATION     -1.491E+06   AT NODE        142   DOF  4
   INSTANCE: PART-1-RIGID-INNER-1                                                            
 LARGEST CORRECTION TO ROTATION    -1.491E+06   AT NODE        142   DOF  4
   INSTANCE: PART-1-RIGID-INNER-1                                                            
          THE MOMENT    IS ZERO EVERYWHERE BUT THE MOMENT    RESIDUAL OR
          THE ROTATION CORRECTION IS NON-ZERO
 
	SYMMETRIC DIRECT SPARSE SOLVER RUNNING ON
 	1 HOST:        1 MPI RANK  x 1 THREAD
 	NUMBER OF EQUATIONS:     16560
 	NUMBER OF RHS:           1
 	NUMBER OF FLOPS:         8.535e+08

     CHECK POINT  START OF SOLVER     

     CHECK POINT  END OF SOLVER       

       ELAPSED USER TIME (SEC)      =  0.10000    
       ELAPSED SYSTEM TIME (SEC)    =   0.0000    
       ELAPSED TOTAL CPU TIME (SEC) =  0.10000    
       ELAPSED WALLCLOCK TIME (SEC) =            0
 

 ***WARNING: THE SYSTEM MATRIX HAS 1 NEGATIVE EIGENVALUES.
             EXPLANATIONS ARE SUGGESTED AFTER THE FIRST OCCURRENCE OF THIS MESSAGE.
 

 ***WARNING: SOLVER PROBLEM. NUMERICAL SINGULARITY WHEN PROCESSING NODE 
             CUT-1-1.189 D.O.F. 1 RATIO = 4.94124E+12.
 

 ***WARNING: SOLVER PROBLEM. NUMERICAL SINGULARITY WHEN PROCESSING NODE 
             CUT-1-1.189 D.O.F. 3 RATIO = 27.5838E+12 .
 

 ***WARNING: SOLVER PROBLEM. NUMERICAL SINGULARITY WHEN PROCESSING NODE 
             CUT-1-1.76 D.O.F. 1 RATIO = 1.36987E+12.
 

 ***WARNING: SOLVER PROBLEM. NUMERICAL SINGULARITY WHEN PROCESSING NODE 
             CUT-1-1.76 D.O.F. 2 RATIO = 5.53786E+12.
 

 ***WARNING: SOLVER PROBLEM. NUMERICAL SINGULARITY WHEN PROCESSING NODE 
             CUT-1-1.76 D.O.F. 3 RATIO = 7.30006E+12.

               CONVERGENCE CHECKS FOR EQUILIBRIUM ITERATION     2


 AVERAGE FORCE                      1.027E-03   TIME AVG. FORCE       1.027E-03
 LARGEST RESIDUAL FORCE             9.587E-03   AT NODE       4182   DOF  2
   INSTANCE: CUT-1-1                                                                         
 LARGEST INCREMENT OF DISP.         8.214E+06   AT NODE        328   DOF  3
   INSTANCE: PART-1-RIGID-OUTER-1                                                            
 LARGEST CORRECTION TO DISP.        4.107E+06   AT NODE        328   DOF  3
   INSTANCE: PART-1-RIGID-OUTER-1                                                            
          FORCE     EQUILIBRIUM NOT ACHIEVED WITHIN TOLERANCE.

 AVERAGE MOMENT                      0.00       TIME AVG. MOMENT      1.000E-02
 LARGEST RESIDUAL MOMENT           -3.096E-04   AT NODE        142   DOF  6
   INSTANCE: PART-1-RIGID-INNER-1                                                            
 LARGEST INCREMENT OF ROTATION     -2.982E+06   AT NODE        142   DOF  4
   INSTANCE: PART-1-RIGID-INNER-1                                                            
 LARGEST CORRECTION TO ROTATION    -1.491E+06   AT NODE        142   DOF  4
   INSTANCE: PART-1-RIGID-INNER-1                                                            
          THE MOMENT    IS ZERO EVERYWHERE BUT THE MOMENT    RESIDUAL OR
          THE ROTATION CORRECTION IS NON-ZERO
 
	SYMMETRIC DIRECT SPARSE SOLVER RUNNING ON
 	1 HOST:        1 MPI RANK  x 1 THREAD
 	NUMBER OF EQUATIONS:     16560
 	NUMBER OF RHS:           1
 	NUMBER OF FLOPS:         8.535e+08

     CHECK POINT  START OF SOLVER     

     CHECK POINT  END OF SOLVER       

       ELAPSED USER TIME (SEC)      =  0.10000    
       ELAPSED SYSTEM TIME (SEC)    =   0.0000    
       ELAPSED TOTAL CPU TIME (SEC) =  0.10000    
       ELAPSED WALLCLOCK TIME (SEC) =            0
 

 ***WARNING: THE SYSTEM MATRIX HAS 1 NEGATIVE EIGENVALUES.
             EXPLANATIONS ARE SUGGESTED AFTER THE FIRST OCCURRENCE OF THIS MESSAGE.
 

 ***WARNING: SOLVER PROBLEM. NUMERICAL SINGULARITY WHEN PROCESSING NODE 
             CUT-1-1.189 D.O.F. 1 RATIO = 4.94124E+12.
 

 ***WARNING: SOLVER PROBLEM. NUMERICAL SINGULARITY WHEN PROCESSING NODE 
             CUT-1-1.189 D.O.F. 3 RATIO = 27.5838E+12 .
 

 ***WARNING: SOLVER PROBLEM. NUMERICAL SINGULARITY WHEN PROCESSING NODE 
             CUT-1-1.76 D.O.F. 1 RATIO = 1.36987E+12.
 

 ***WARNING: SOLVER PROBLEM. NUMERICAL SINGULARITY WHEN PROCESSING NODE 
             CUT-1-1.76 D.O.F. 2 RATIO = 5.53786E+12.
 

 ***WARNING: SOLVER PROBLEM. NUMERICAL SINGULARITY WHEN PROCESSING NODE 
             CUT-1-1.76 D.O.F. 3 RATIO = 7.30006E+12.

               CONVERGENCE CHECKS FOR EQUILIBRIUM ITERATION     3


 AVERAGE FORCE                      1.037E-03   TIME AVG. FORCE       1.037E-03
 LARGEST RESIDUAL FORCE             1.345E-02   AT NODE       5594   DOF  2
   INSTANCE: CUT-1-1                                                                         
 LARGEST INCREMENT OF DISP.         1.232E+07   AT NODE        328   DOF  3
   INSTANCE: PART-1-RIGID-OUTER-1                                                            
 LARGEST CORRECTION TO DISP.        4.107E+06   AT NODE        328   DOF  3
   INSTANCE: PART-1-RIGID-OUTER-1                                                            
          FORCE     EQUILIBRIUM NOT ACHIEVED WITHIN TOLERANCE.

 AVERAGE MOMENT                      0.00       TIME AVG. MOMENT      1.000E-02
 LARGEST RESIDUAL MOMENT            1.222E-03   AT NODE        142   DOF  6
   INSTANCE: PART-1-RIGID-INNER-1                                                            
 LARGEST INCREMENT OF ROTATION     -4.473E+06   AT NODE        142   DOF  4
   INSTANCE: PART-1-RIGID-INNER-1                                                            
 LARGEST CORRECTION TO ROTATION    -1.491E+06   AT NODE        142   DOF  4
   INSTANCE: PART-1-RIGID-INNER-1                                                            
          THE MOMENT    IS ZERO EVERYWHERE BUT THE MOMENT    RESIDUAL OR
          THE ROTATION CORRECTION IS NON-ZERO
 
	SYMMETRIC DIRECT SPARSE SOLVER RUNNING ON
 	1 HOST:        1 MPI RANK  x 1 THREAD
 	NUMBER OF EQUATIONS:     16560
 	NUMBER OF RHS:           1
 	NUMBER OF FLOPS:         8.535e+08

     CHECK POINT  START OF SOLVER     

     CHECK POINT  END OF SOLVER       

       ELAPSED USER TIME (SEC)      =  0.10000    
       ELAPSED SYSTEM TIME (SEC)    =   0.0000    
       ELAPSED TOTAL CPU TIME (SEC) =  0.10000    
       ELAPSED WALLCLOCK TIME (SEC) =            0
 

 ***WARNING: THE SYSTEM MATRIX HAS 1 NEGATIVE EIGENVALUES.
             EXPLANATIONS ARE SUGGESTED AFTER THE FIRST OCCURRENCE OF THIS MESSAGE.
 

 ***WARNING: SOLVER PROBLEM. NUMERICAL SINGULARITY WHEN PROCESSING NODE 
             CUT-1-1.189 D.O.F. 1 RATIO = 4.94124E+12.
 

 ***WARNING: SOLVER PROBLEM. NUMERICAL SINGULARITY WHEN PROCESSING NODE 
             CUT-1-1.189 D.O.F. 3 RATIO = 27.5838E+12 .
 

 ***WARNING: SOLVER PROBLEM. NUMERICAL SINGULARITY WHEN PROCESSING NODE 
             CUT-1-1.76 D.O.F. 1 RATIO = 1.36987E+12.
 

 ***WARNING: SOLVER PROBLEM. NUMERICAL SINGULARITY WHEN PROCESSING NODE 
             CUT-1-1.76 D.O.F. 2 RATIO = 5.53786E+12.
 

 ***WARNING: SOLVER PROBLEM. NUMERICAL SINGULARITY WHEN PROCESSING NODE 
             CUT-1-1.76 D.O.F. 3 RATIO = 7.30006E+12.

               CONVERGENCE CHECKS FOR EQUILIBRIUM ITERATION     4


 AVERAGE FORCE                      1.044E-03   TIME AVG. FORCE       1.044E-03
 LARGEST RESIDUAL FORCE            -9.048E-03   AT NODE       2779   DOF  2
   INSTANCE: CUT-1-1                                                                         
 LARGEST INCREMENT OF DISP.         1.643E+07   AT NODE        328   DOF  3
   INSTANCE: PART-1-RIGID-OUTER-1                                                            
 LARGEST CORRECTION TO DISP.        4.107E+06   AT NODE        328   DOF  3
   INSTANCE: PART-1-RIGID-OUTER-1                                                            
          FORCE     EQUILIBRIUM NOT ACHIEVED WITHIN TOLERANCE.

 AVERAGE MOMENT                      0.00       TIME AVG. MOMENT      1.000E-02
 LARGEST RESIDUAL MOMENT           -2.122E-03   AT NODE        142   DOF  6
   INSTANCE: PART-1-RIGID-INNER-1                                                            
 LARGEST INCREMENT OF ROTATION     -5.964E+06   AT NODE        142   DOF  4
   INSTANCE: PART-1-RIGID-INNER-1                                                            
 LARGEST CORRECTION TO ROTATION    -1.491E+06   AT NODE        142   DOF  4
   INSTANCE: PART-1-RIGID-INNER-1                                                            
          THE MOMENT    IS ZERO EVERYWHERE BUT THE MOMENT    RESIDUAL OR
          THE ROTATION CORRECTION IS NON-ZERO
 
	SYMMETRIC DIRECT SPARSE SOLVER RUNNING ON
 	1 HOST:        1 MPI RANK  x 1 THREAD
 	NUMBER OF EQUATIONS:     16560
 	NUMBER OF RHS:           1
 	NUMBER OF FLOPS:         8.535e+08

     CHECK POINT  START OF SOLVER     

     CHECK POINT  END OF SOLVER       

       ELAPSED USER TIME (SEC)      =  0.10000    
       ELAPSED SYSTEM TIME (SEC)    =   0.0000    
       ELAPSED TOTAL CPU TIME (SEC) =  0.10000    
       ELAPSED WALLCLOCK TIME (SEC) =            1
 

 ***WARNING: THE SYSTEM MATRIX HAS 1 NEGATIVE EIGENVALUES.
             EXPLANATIONS ARE SUGGESTED AFTER THE FIRST OCCURRENCE OF THIS MESSAGE.
 

 ***WARNING: SOLVER PROBLEM. NUMERICAL SINGULARITY WHEN PROCESSING NODE 
             CUT-1-1.189 D.O.F. 1 RATIO = 4.94124E+12.
 

 ***WARNING: SOLVER PROBLEM. NUMERICAL SINGULARITY WHEN PROCESSING NODE 
             CUT-1-1.189 D.O.F. 3 RATIO = 27.5838E+12 .
 

 ***WARNING: SOLVER PROBLEM. NUMERICAL SINGULARITY WHEN PROCESSING NODE 
             CUT-1-1.76 D.O.F. 1 RATIO = 1.36987E+12.
 

 ***WARNING: SOLVER PROBLEM. NUMERICAL SINGULARITY WHEN PROCESSING NODE 
             CUT-1-1.76 D.O.F. 2 RATIO = 5.53786E+12.
 

 ***WARNING: SOLVER PROBLEM. NUMERICAL SINGULARITY WHEN PROCESSING NODE 
             CUT-1-1.76 D.O.F. 3 RATIO = 7.30006E+12.

               CONVERGENCE CHECKS FOR EQUILIBRIUM ITERATION     5


 AVERAGE FORCE                      1.061E-03   TIME AVG. FORCE       1.061E-03
 LARGEST RESIDUAL FORCE            -1.157E-02   AT NODE       4156   DOF  2
   INSTANCE: CUT-1-1                                                                         
 LARGEST INCREMENT OF DISP.         2.053E+07   AT NODE        328   DOF  3
   INSTANCE: PART-1-RIGID-OUTER-1                                                            
 LARGEST CORRECTION TO DISP.        4.107E+06   AT NODE        328   DOF  3
   INSTANCE: PART-1-RIGID-OUTER-1                                                            
          FORCE     EQUILIBRIUM NOT ACHIEVED WITHIN TOLERANCE.

 AVERAGE MOMENT                      0.00       TIME AVG. MOMENT      1.000E-02
 LARGEST RESIDUAL MOMENT            4.167E-04   AT NODE        481   DOF  6
   INSTANCE: PART-1-RIGID-OUTER-1                                                            
 LARGEST INCREMENT OF ROTATION     -7.455E+06   AT NODE        142   DOF  4
   INSTANCE: PART-1-RIGID-INNER-1                                                            
 LARGEST CORRECTION TO ROTATION    -1.491E+06   AT NODE        481   DOF  4
   INSTANCE: PART-1-RIGID-OUTER-1                                                            
          THE MOMENT    IS ZERO EVERYWHERE BUT THE MOMENT    RESIDUAL OR
          THE ROTATION CORRECTION IS NON-ZERO
 
	SYMMETRIC DIRECT SPARSE SOLVER RUNNING ON
 	1 HOST:        1 MPI RANK  x 1 THREAD
 	NUMBER OF EQUATIONS:     16560
 	NUMBER OF RHS:           1
 	NUMBER OF FLOPS:         8.535e+08

     CHECK POINT  START OF SOLVER     

     CHECK POINT  END OF SOLVER       

       ELAPSED USER TIME (SEC)      =  0.10000    
       ELAPSED SYSTEM TIME (SEC)    =   0.0000    
       ELAPSED TOTAL CPU TIME (SEC) =  0.10000    
       ELAPSED WALLCLOCK TIME (SEC) =            0
 

 ***WARNING: THE SYSTEM MATRIX HAS 1 NEGATIVE EIGENVALUES.
             EXPLANATIONS ARE SUGGESTED AFTER THE FIRST OCCURRENCE OF THIS MESSAGE.
 

 ***WARNING: SOLVER PROBLEM. NUMERICAL SINGULARITY WHEN PROCESSING NODE 
             CUT-1-1.189 D.O.F. 1 RATIO = 4.94124E+12.
 

 ***WARNING: SOLVER PROBLEM. NUMERICAL SINGULARITY WHEN PROCESSING NODE 
             CUT-1-1.189 D.O.F. 3 RATIO = 27.5838E+12 .
 

 ***WARNING: SOLVER PROBLEM. NUMERICAL SINGULARITY WHEN PROCESSING NODE 
             CUT-1-1.76 D.O.F. 1 RATIO = 1.36987E+12.
 

 ***WARNING: SOLVER PROBLEM. NUMERICAL SINGULARITY WHEN PROCESSING NODE 
             CUT-1-1.76 D.O.F. 2 RATIO = 5.53786E+12.
 

 ***WARNING: SOLVER PROBLEM. NUMERICAL SINGULARITY WHEN PROCESSING NODE 
             CUT-1-1.76 D.O.F. 3 RATIO = 7.30006E+12.

               CONVERGENCE CHECKS FOR EQUILIBRIUM ITERATION     6


 AVERAGE FORCE                      1.078E-03   TIME AVG. FORCE       1.078E-03
 LARGEST RESIDUAL FORCE            -1.362E-02   AT NODE       2788   DOF  2
   INSTANCE: CUT-1-1                                                                         
 LARGEST INCREMENT OF DISP.         2.464E+07   AT NODE        328   DOF  3
   INSTANCE: PART-1-RIGID-OUTER-1                                                            
 LARGEST CORRECTION TO DISP.        4.107E+06   AT NODE        328   DOF  3
   INSTANCE: PART-1-RIGID-OUTER-1                                                            
          FORCE     EQUILIBRIUM NOT ACHIEVED WITHIN TOLERANCE.

 AVERAGE MOMENT                      0.00       TIME AVG. MOMENT      1.000E-02
 LARGEST RESIDUAL MOMENT           -2.104E-03   AT NODE        142   DOF  6
   INSTANCE: PART-1-RIGID-INNER-1                                                            
 LARGEST INCREMENT OF ROTATION     -8.946E+06   AT NODE        142   DOF  4
   INSTANCE: PART-1-RIGID-INNER-1                                                            
 LARGEST CORRECTION TO ROTATION    -1.491E+06   AT NODE        142   DOF  4
   INSTANCE: PART-1-RIGID-INNER-1                                                            
          THE MOMENT    IS ZERO EVERYWHERE BUT THE MOMENT    RESIDUAL OR
          THE ROTATION CORRECTION IS NON-ZERO
 

 ***NOTE: THE SOLUTION APPEARS TO BE DIVERGING. CONVERGENCE IS JUDGED UNLIKELY.


  INCREMENT     1 STARTS. ATTEMPT NUMBER  4, TIME INCREMENT  1.562E-02
 
	SYMMETRIC DIRECT SPARSE SOLVER RUNNING ON
 	1 HOST:        1 MPI RANK  x 1 THREAD
 	NUMBER OF EQUATIONS:     16560
 	NUMBER OF RHS:           1
 	NUMBER OF FLOPS:         8.535e+08

     CHECK POINT  START OF SOLVER     

     CHECK POINT  END OF SOLVER       

       ELAPSED USER TIME (SEC)      =  0.10000    
       ELAPSED SYSTEM TIME (SEC)    =   0.0000    
       ELAPSED TOTAL CPU TIME (SEC) =  0.10000    
       ELAPSED WALLCLOCK TIME (SEC) =            0
 

 ***WARNING: THE SYSTEM MATRIX HAS 1 NEGATIVE EIGENVALUES.
             EXPLANATIONS ARE SUGGESTED AFTER THE FIRST OCCURRENCE OF THIS MESSAGE.
 

 ***WARNING: SOLVER PROBLEM. NUMERICAL SINGULARITY WHEN PROCESSING NODE 
             CUT-1-1.189 D.O.F. 1 RATIO = 4.94124E+12.
 

 ***WARNING: SOLVER PROBLEM. NUMERICAL SINGULARITY WHEN PROCESSING NODE 
             CUT-1-1.189 D.O.F. 3 RATIO = 27.5838E+12 .
 

 ***WARNING: SOLVER PROBLEM. NUMERICAL SINGULARITY WHEN PROCESSING NODE 
             CUT-1-1.76 D.O.F. 1 RATIO = 1.36987E+12.
 

 ***WARNING: SOLVER PROBLEM. NUMERICAL SINGULARITY WHEN PROCESSING NODE 
             CUT-1-1.76 D.O.F. 2 RATIO = 5.53786E+12.
 

 ***WARNING: SOLVER PROBLEM. NUMERICAL SINGULARITY WHEN PROCESSING NODE 
             CUT-1-1.76 D.O.F. 3 RATIO = 7.30006E+12.

               CONVERGENCE CHECKS FOR EQUILIBRIUM ITERATION     1


 AVERAGE FORCE                      2.554E-04   TIME AVG. FORCE       2.554E-04
 LARGEST RESIDUAL FORCE             2.411E-03   AT NODE       5594   DOF  2
   INSTANCE: CUT-1-1                                                                         
 LARGEST INCREMENT OF DISP.         1.027E+06   AT NODE        328   DOF  3
   INSTANCE: PART-1-RIGID-OUTER-1                                                            
 LARGEST CORRECTION TO DISP.        1.027E+06   AT NODE        328   DOF  3
   INSTANCE: PART-1-RIGID-OUTER-1                                                            
          FORCE     EQUILIBRIUM NOT ACHIEVED WITHIN TOLERANCE.

 AVERAGE MOMENT                      0.00       TIME AVG. MOMENT      1.000E-02
 LARGEST RESIDUAL MOMENT           -1.805E-04   AT NODE        142   DOF  6
   INSTANCE: PART-1-RIGID-INNER-1                                                            
 LARGEST INCREMENT OF ROTATION     -3.727E+05   AT NODE        142   DOF  4
   INSTANCE: PART-1-RIGID-INNER-1                                                            
 LARGEST CORRECTION TO ROTATION    -3.727E+05   AT NODE        142   DOF  4
   INSTANCE: PART-1-RIGID-INNER-1                                                            
          THE MOMENT    IS ZERO EVERYWHERE BUT THE MOMENT    RESIDUAL OR
          THE ROTATION CORRECTION IS NON-ZERO
 
	SYMMETRIC DIRECT SPARSE SOLVER RUNNING ON
 	1 HOST:        1 MPI RANK  x 1 THREAD
 	NUMBER OF EQUATIONS:     16560
 	NUMBER OF RHS:           1
 	NUMBER OF FLOPS:         8.535e+08

     CHECK POINT  START OF SOLVER     

     CHECK POINT  END OF SOLVER       

       ELAPSED USER TIME (SEC)      =  0.10000    
       ELAPSED SYSTEM TIME (SEC)    =   0.0000    
       ELAPSED TOTAL CPU TIME (SEC) =  0.10000    
       ELAPSED WALLCLOCK TIME (SEC) =            0
 

 ***WARNING: THE SYSTEM MATRIX HAS 1 NEGATIVE EIGENVALUES.
             EXPLANATIONS ARE SUGGESTED AFTER THE FIRST OCCURRENCE OF THIS MESSAGE.
 

 ***WARNING: SOLVER PROBLEM. NUMERICAL SINGULARITY WHEN PROCESSING NODE 
             CUT-1-1.189 D.O.F. 1 RATIO = 4.94124E+12.
 

 ***WARNING: SOLVER PROBLEM. NUMERICAL SINGULARITY WHEN PROCESSING NODE 
             CUT-1-1.189 D.O.F. 3 RATIO = 27.5838E+12 .
 

 ***WARNING: SOLVER PROBLEM. NUMERICAL SINGULARITY WHEN PROCESSING NODE 
             CUT-1-1.76 D.O.F. 1 RATIO = 1.36987E+12.
 

 ***WARNING: SOLVER PROBLEM. NUMERICAL SINGULARITY WHEN PROCESSING NODE 
             CUT-1-1.76 D.O.F. 2 RATIO = 5.53786E+12.
 

 ***WARNING: SOLVER PROBLEM. NUMERICAL SINGULARITY WHEN PROCESSING NODE 
             CUT-1-1.76 D.O.F. 3 RATIO = 7.30006E+12.

               CONVERGENCE CHECKS FOR EQUILIBRIUM ITERATION     2


 AVERAGE FORCE                      2.567E-04   TIME AVG. FORCE       2.567E-04
 LARGEST RESIDUAL FORCE             2.397E-03   AT NODE       4182   DOF  2
   INSTANCE: CUT-1-1                                                                         
 LARGEST INCREMENT OF DISP.         2.053E+06   AT NODE        328   DOF  3
   INSTANCE: PART-1-RIGID-OUTER-1                                                            
 LARGEST CORRECTION TO DISP.        1.027E+06   AT NODE        328   DOF  3
   INSTANCE: PART-1-RIGID-OUTER-1                                                            
          FORCE     EQUILIBRIUM NOT ACHIEVED WITHIN TOLERANCE.

 AVERAGE MOMENT                      0.00       TIME AVG. MOMENT      1.000E-02
 LARGEST RESIDUAL MOMENT           -7.739E-05   AT NODE        142   DOF  6
   INSTANCE: PART-1-RIGID-INNER-1                                                            
 LARGEST INCREMENT OF ROTATION     -7.455E+05   AT NODE        142   DOF  4
   INSTANCE: PART-1-RIGID-INNER-1                                                            
 LARGEST CORRECTION TO ROTATION    -3.727E+05   AT NODE        142   DOF  4
   INSTANCE: PART-1-RIGID-INNER-1                                                            
          THE MOMENT    IS ZERO EVERYWHERE BUT THE MOMENT    RESIDUAL OR
          THE ROTATION CORRECTION IS NON-ZERO
 
	SYMMETRIC DIRECT SPARSE SOLVER RUNNING ON
 	1 HOST:        1 MPI RANK  x 1 THREAD
 	NUMBER OF EQUATIONS:     16560
 	NUMBER OF RHS:           1
 	NUMBER OF FLOPS:         8.535e+08

     CHECK POINT  START OF SOLVER     

     CHECK POINT  END OF SOLVER       

       ELAPSED USER TIME (SEC)      =  0.10000    
       ELAPSED SYSTEM TIME (SEC)    =   0.0000    
       ELAPSED TOTAL CPU TIME (SEC) =  0.10000    
       ELAPSED WALLCLOCK TIME (SEC) =            0
 

 ***WARNING: THE SYSTEM MATRIX HAS 1 NEGATIVE EIGENVALUES.
             EXPLANATIONS ARE SUGGESTED AFTER THE FIRST OCCURRENCE OF THIS MESSAGE.
 

 ***WARNING: SOLVER PROBLEM. NUMERICAL SINGULARITY WHEN PROCESSING NODE 
             CUT-1-1.189 D.O.F. 1 RATIO = 4.94124E+12.
 

 ***WARNING: SOLVER PROBLEM. NUMERICAL SINGULARITY WHEN PROCESSING NODE 
             CUT-1-1.189 D.O.F. 3 RATIO = 27.5838E+12 .
 

 ***WARNING: SOLVER PROBLEM. NUMERICAL SINGULARITY WHEN PROCESSING NODE 
             CUT-1-1.76 D.O.F. 1 RATIO = 1.36987E+12.
 

 ***WARNING: SOLVER PROBLEM. NUMERICAL SINGULARITY WHEN PROCESSING NODE 
             CUT-1-1.76 D.O.F. 2 RATIO = 5.53786E+12.
 

 ***WARNING: SOLVER PROBLEM. NUMERICAL SINGULARITY WHEN PROCESSING NODE 
             CUT-1-1.76 D.O.F. 3 RATIO = 7.30006E+12.

               CONVERGENCE CHECKS FOR EQUILIBRIUM ITERATION     3


 AVERAGE FORCE                      2.592E-04   TIME AVG. FORCE       2.592E-04
 LARGEST RESIDUAL FORCE             3.362E-03   AT NODE       5594   DOF  2
   INSTANCE: CUT-1-1                                                                         
 LARGEST INCREMENT OF DISP.         3.080E+06   AT NODE        328   DOF  3
   INSTANCE: PART-1-RIGID-OUTER-1                                                            
 LARGEST CORRECTION TO DISP.        1.027E+06   AT NODE        328   DOF  3
   INSTANCE: PART-1-RIGID-OUTER-1                                                            
          FORCE     EQUILIBRIUM NOT ACHIEVED WITHIN TOLERANCE.

 AVERAGE MOMENT                      0.00       TIME AVG. MOMENT      1.000E-02
 LARGEST RESIDUAL MOMENT            3.055E-04   AT NODE        142   DOF  6
   INSTANCE: PART-1-RIGID-INNER-1                                                            
 LARGEST INCREMENT OF ROTATION     -1.118E+06   AT NODE        142   DOF  4
   INSTANCE: PART-1-RIGID-INNER-1                                                            
 LARGEST CORRECTION TO ROTATION    -3.727E+05   AT NODE        142   DOF  4
   INSTANCE: PART-1-RIGID-INNER-1                                                            
          THE MOMENT    IS ZERO EVERYWHERE BUT THE MOMENT    RESIDUAL OR
          THE ROTATION CORRECTION IS NON-ZERO
 
	SYMMETRIC DIRECT SPARSE SOLVER RUNNING ON
 	1 HOST:        1 MPI RANK  x 1 THREAD
 	NUMBER OF EQUATIONS:     16560
 	NUMBER OF RHS:           1
 	NUMBER OF FLOPS:         8.535e+08

     CHECK POINT  START OF SOLVER     

     CHECK POINT  END OF SOLVER       

       ELAPSED USER TIME (SEC)      =  0.10000    
       ELAPSED SYSTEM TIME (SEC)    =   0.0000    
       ELAPSED TOTAL CPU TIME (SEC) =  0.10000    
       ELAPSED WALLCLOCK TIME (SEC) =            0
 

 ***WARNING: THE SYSTEM MATRIX HAS 1 NEGATIVE EIGENVALUES.
             EXPLANATIONS ARE SUGGESTED AFTER THE FIRST OCCURRENCE OF THIS MESSAGE.
 

 ***WARNING: SOLVER PROBLEM. NUMERICAL SINGULARITY WHEN PROCESSING NODE 
             CUT-1-1.189 D.O.F. 1 RATIO = 4.94124E+12.
 

 ***WARNING: SOLVER PROBLEM. NUMERICAL SINGULARITY WHEN PROCESSING NODE 
             CUT-1-1.189 D.O.F. 3 RATIO = 27.5838E+12 .
 

 ***WARNING: SOLVER PROBLEM. NUMERICAL SINGULARITY WHEN PROCESSING NODE 
             CUT-1-1.76 D.O.F. 1 RATIO = 1.36987E+12.
 

 ***WARNING: SOLVER PROBLEM. NUMERICAL SINGULARITY WHEN PROCESSING NODE 
             CUT-1-1.76 D.O.F. 2 RATIO = 5.53786E+12.
 

 ***WARNING: SOLVER PROBLEM. NUMERICAL SINGULARITY WHEN PROCESSING NODE 
             CUT-1-1.76 D.O.F. 3 RATIO = 7.30006E+12.

               CONVERGENCE CHECKS FOR EQUILIBRIUM ITERATION     4


 AVERAGE FORCE                      2.611E-04   TIME AVG. FORCE       2.611E-04
 LARGEST RESIDUAL FORCE            -2.262E-03   AT NODE       2779   DOF  2
   INSTANCE: CUT-1-1                                                                         
 LARGEST INCREMENT OF DISP.         4.107E+06   AT NODE        328   DOF  3
   INSTANCE: PART-1-RIGID-OUTER-1                                                            
 LARGEST CORRECTION TO DISP.        1.027E+06   AT NODE        328   DOF  3
   INSTANCE: PART-1-RIGID-OUTER-1                                                            
          FORCE     EQUILIBRIUM NOT ACHIEVED WITHIN TOLERANCE.

 AVERAGE MOMENT                      0.00       TIME AVG. MOMENT      1.000E-02
 LARGEST RESIDUAL MOMENT           -5.304E-04   AT NODE        142   DOF  6
   INSTANCE: PART-1-RIGID-INNER-1                                                            
 LARGEST INCREMENT OF ROTATION     -1.491E+06   AT NODE        142   DOF  4
   INSTANCE: PART-1-RIGID-INNER-1                                                            
 LARGEST CORRECTION TO ROTATION    -3.727E+05   AT NODE        142   DOF  4
   INSTANCE: PART-1-RIGID-INNER-1                                                            
          THE MOMENT    IS ZERO EVERYWHERE BUT THE MOMENT    RESIDUAL OR
          THE ROTATION CORRECTION IS NON-ZERO
 
	SYMMETRIC DIRECT SPARSE SOLVER RUNNING ON
 	1 HOST:        1 MPI RANK  x 1 THREAD
 	NUMBER OF EQUATIONS:     16560
 	NUMBER OF RHS:           1
 	NUMBER OF FLOPS:         8.535e+08

     CHECK POINT  START OF SOLVER     

     CHECK POINT  END OF SOLVER       

       ELAPSED USER TIME (SEC)      =   0.0000    
       ELAPSED SYSTEM TIME (SEC)    =   0.0000    
       ELAPSED TOTAL CPU TIME (SEC) =   0.0000    
       ELAPSED WALLCLOCK TIME (SEC) =            0
 

 ***WARNING: THE SYSTEM MATRIX HAS 1 NEGATIVE EIGENVALUES.
             EXPLANATIONS ARE SUGGESTED AFTER THE FIRST OCCURRENCE OF THIS MESSAGE.
 

 ***WARNING: SOLVER PROBLEM. NUMERICAL SINGULARITY WHEN PROCESSING NODE 
             CUT-1-1.189 D.O.F. 1 RATIO = 4.94124E+12.
 

 ***WARNING: SOLVER PROBLEM. NUMERICAL SINGULARITY WHEN PROCESSING NODE 
             CUT-1-1.189 D.O.F. 3 RATIO = 27.5838E+12 .
 

 ***WARNING: SOLVER PROBLEM. NUMERICAL SINGULARITY WHEN PROCESSING NODE 
             CUT-1-1.76 D.O.F. 1 RATIO = 1.36987E+12.
 

 ***WARNING: SOLVER PROBLEM. NUMERICAL SINGULARITY WHEN PROCESSING NODE 
             CUT-1-1.76 D.O.F. 2 RATIO = 5.53786E+12.
 

 ***WARNING: SOLVER PROBLEM. NUMERICAL SINGULARITY WHEN PROCESSING NODE 
             CUT-1-1.76 D.O.F. 3 RATIO = 7.30006E+12.

               CONVERGENCE CHECKS FOR EQUILIBRIUM ITERATION     5


 AVERAGE FORCE                      2.652E-04   TIME AVG. FORCE       2.652E-04
 LARGEST RESIDUAL FORCE            -2.892E-03   AT NODE       4156   DOF  2
   INSTANCE: CUT-1-1                                                                         
 LARGEST INCREMENT OF DISP.         5.134E+06   AT NODE        328   DOF  3
   INSTANCE: PART-1-RIGID-OUTER-1                                                            
 LARGEST CORRECTION TO DISP.        1.027E+06   AT NODE        328   DOF  3
   INSTANCE: PART-1-RIGID-OUTER-1                                                            
          FORCE     EQUILIBRIUM NOT ACHIEVED WITHIN TOLERANCE.

 AVERAGE MOMENT                      0.00       TIME AVG. MOMENT      1.000E-02
 LARGEST RESIDUAL MOMENT            1.042E-04   AT NODE        481   DOF  6
   INSTANCE: PART-1-RIGID-OUTER-1                                                            
 LARGEST INCREMENT OF ROTATION     -1.864E+06   AT NODE        142   DOF  4
   INSTANCE: PART-1-RIGID-INNER-1                                                            
 LARGEST CORRECTION TO ROTATION    -3.727E+05   AT NODE        481   DOF  4
   INSTANCE: PART-1-RIGID-OUTER-1                                                            
          THE MOMENT    IS ZERO EVERYWHERE BUT THE MOMENT    RESIDUAL OR
          THE ROTATION CORRECTION IS NON-ZERO
 
	SYMMETRIC DIRECT SPARSE SOLVER RUNNING ON
 	1 HOST:        1 MPI RANK  x 1 THREAD
 	NUMBER OF EQUATIONS:     16560
 	NUMBER OF RHS:           1
 	NUMBER OF FLOPS:         8.535e+08

     CHECK POINT  START OF SOLVER     

     CHECK POINT  END OF SOLVER       

       ELAPSED USER TIME (SEC)      =   0.0000    
       ELAPSED SYSTEM TIME (SEC)    =   0.0000    
       ELAPSED TOTAL CPU TIME (SEC) =   0.0000    
       ELAPSED WALLCLOCK TIME (SEC) =            0
 

 ***WARNING: THE SYSTEM MATRIX HAS 1 NEGATIVE EIGENVALUES.
             EXPLANATIONS ARE SUGGESTED AFTER THE FIRST OCCURRENCE OF THIS MESSAGE.
 

 ***WARNING: SOLVER PROBLEM. NUMERICAL SINGULARITY WHEN PROCESSING NODE 
             CUT-1-1.189 D.O.F. 1 RATIO = 4.94124E+12.
 

 ***WARNING: SOLVER PROBLEM. NUMERICAL SINGULARITY WHEN PROCESSING NODE 
             CUT-1-1.189 D.O.F. 3 RATIO = 27.5838E+12 .
 

 ***WARNING: SOLVER PROBLEM. NUMERICAL SINGULARITY WHEN PROCESSING NODE 
             CUT-1-1.76 D.O.F. 1 RATIO = 1.36987E+12.
 

 ***WARNING: SOLVER PROBLEM. NUMERICAL SINGULARITY WHEN PROCESSING NODE 
             CUT-1-1.76 D.O.F. 2 RATIO = 5.53786E+12.
 

 ***WARNING: SOLVER PROBLEM. NUMERICAL SINGULARITY WHEN PROCESSING NODE 
             CUT-1-1.76 D.O.F. 3 RATIO = 7.30006E+12.

               CONVERGENCE CHECKS FOR EQUILIBRIUM ITERATION     6


 AVERAGE FORCE                      2.695E-04   TIME AVG. FORCE       2.695E-04
 LARGEST RESIDUAL FORCE            -3.405E-03   AT NODE       2788   DOF  2
   INSTANCE: CUT-1-1                                                                         
 LARGEST INCREMENT OF DISP.         6.160E+06   AT NODE        328   DOF  3
   INSTANCE: PART-1-RIGID-OUTER-1                                                            
 LARGEST CORRECTION TO DISP.        1.027E+06   AT NODE        328   DOF  3
   INSTANCE: PART-1-RIGID-OUTER-1                                                            
          FORCE     EQUILIBRIUM NOT ACHIEVED WITHIN TOLERANCE.

 AVERAGE MOMENT                      0.00       TIME AVG. MOMENT      1.000E-02
 LARGEST RESIDUAL MOMENT           -5.259E-04   AT NODE        142   DOF  6
   INSTANCE: PART-1-RIGID-INNER-1                                                            
 LARGEST INCREMENT OF ROTATION     -2.236E+06   AT NODE        142   DOF  4
   INSTANCE: PART-1-RIGID-INNER-1                                                            
 LARGEST CORRECTION TO ROTATION    -3.727E+05   AT NODE        142   DOF  4
   INSTANCE: PART-1-RIGID-INNER-1                                                            
          THE MOMENT    IS ZERO EVERYWHERE BUT THE MOMENT    RESIDUAL OR
          THE ROTATION CORRECTION IS NON-ZERO
 

 ***NOTE: THE SOLUTION APPEARS TO BE DIVERGING. CONVERGENCE IS JUDGED UNLIKELY.


  INCREMENT     1 STARTS. ATTEMPT NUMBER  5, TIME INCREMENT  3.906E-03
 
	SYMMETRIC DIRECT SPARSE SOLVER RUNNING ON
 	1 HOST:        1 MPI RANK  x 1 THREAD
 	NUMBER OF EQUATIONS:     16560
 	NUMBER OF RHS:           1
 	NUMBER OF FLOPS:         8.535e+08

     CHECK POINT  START OF SOLVER     

     CHECK POINT  END OF SOLVER       

       ELAPSED USER TIME (SEC)      =  0.10000    
       ELAPSED SYSTEM TIME (SEC)    =   0.0000    
       ELAPSED TOTAL CPU TIME (SEC) =  0.10000    
       ELAPSED WALLCLOCK TIME (SEC) =            0
 

 ***WARNING: THE SYSTEM MATRIX HAS 1 NEGATIVE EIGENVALUES.
             EXPLANATIONS ARE SUGGESTED AFTER THE FIRST OCCURRENCE OF THIS MESSAGE.
 

 ***WARNING: SOLVER PROBLEM. NUMERICAL SINGULARITY WHEN PROCESSING NODE 
             CUT-1-1.189 D.O.F. 1 RATIO = 4.94124E+12.
 

 ***WARNING: SOLVER PROBLEM. NUMERICAL SINGULARITY WHEN PROCESSING NODE 
             CUT-1-1.189 D.O.F. 3 RATIO = 27.5838E+12 .
 

 ***WARNING: SOLVER PROBLEM. NUMERICAL SINGULARITY WHEN PROCESSING NODE 
             CUT-1-1.76 D.O.F. 1 RATIO = 1.36987E+12.
 

 ***WARNING: SOLVER PROBLEM. NUMERICAL SINGULARITY WHEN PROCESSING NODE 
             CUT-1-1.76 D.O.F. 2 RATIO = 5.53786E+12.
 

 ***WARNING: SOLVER PROBLEM. NUMERICAL SINGULARITY WHEN PROCESSING NODE 
             CUT-1-1.76 D.O.F. 3 RATIO = 7.30006E+12.

               CONVERGENCE CHECKS FOR EQUILIBRIUM ITERATION     1


 AVERAGE FORCE                      6.385E-05   TIME AVG. FORCE       6.385E-05
 LARGEST RESIDUAL FORCE             6.028E-04   AT NODE       5594   DOF  2
   INSTANCE: CUT-1-1                                                                         
 LARGEST INCREMENT OF DISP.         2.567E+05   AT NODE        328   DOF  3
   INSTANCE: PART-1-RIGID-OUTER-1                                                            
 LARGEST CORRECTION TO DISP.        2.567E+05   AT NODE        328   DOF  3
   INSTANCE: PART-1-RIGID-OUTER-1                                                            
          FORCE     EQUILIBRIUM NOT ACHIEVED WITHIN TOLERANCE.

 AVERAGE MOMENT                      0.00       TIME AVG. MOMENT      1.000E-02
 LARGEST RESIDUAL MOMENT           -4.511E-05   AT NODE        142   DOF  6
   INSTANCE: PART-1-RIGID-INNER-1                                                            
 LARGEST INCREMENT OF ROTATION     -9.318E+04   AT NODE        142   DOF  4
   INSTANCE: PART-1-RIGID-INNER-1                                                            
 LARGEST CORRECTION TO ROTATION    -9.318E+04   AT NODE        142   DOF  4
   INSTANCE: PART-1-RIGID-INNER-1                                                            
          THE MOMENT    IS ZERO EVERYWHERE BUT THE MOMENT    RESIDUAL OR
          THE ROTATION CORRECTION IS NON-ZERO
 
	SYMMETRIC DIRECT SPARSE SOLVER RUNNING ON
 	1 HOST:        1 MPI RANK  x 1 THREAD
 	NUMBER OF EQUATIONS:     16560
 	NUMBER OF RHS:           1
 	NUMBER OF FLOPS:         8.535e+08

     CHECK POINT  START OF SOLVER     

     CHECK POINT  END OF SOLVER       

       ELAPSED USER TIME (SEC)      =  0.10000    
       ELAPSED SYSTEM TIME (SEC)    =   0.0000    
       ELAPSED TOTAL CPU TIME (SEC) =  0.10000    
       ELAPSED WALLCLOCK TIME (SEC) =            0
 

 ***WARNING: THE SYSTEM MATRIX HAS 1 NEGATIVE EIGENVALUES.
             EXPLANATIONS ARE SUGGESTED AFTER THE FIRST OCCURRENCE OF THIS MESSAGE.
 

 ***WARNING: SOLVER PROBLEM. NUMERICAL SINGULARITY WHEN PROCESSING NODE 
             CUT-1-1.189 D.O.F. 1 RATIO = 4.94124E+12.
 

 ***WARNING: SOLVER PROBLEM. NUMERICAL SINGULARITY WHEN PROCESSING NODE 
             CUT-1-1.189 D.O.F. 3 RATIO = 27.5838E+12 .
 

 ***WARNING: SOLVER PROBLEM. NUMERICAL SINGULARITY WHEN PROCESSING NODE 
             CUT-1-1.76 D.O.F. 1 RATIO = 1.36987E+12.
 

 ***WARNING: SOLVER PROBLEM. NUMERICAL SINGULARITY WHEN PROCESSING NODE 
             CUT-1-1.76 D.O.F. 2 RATIO = 5.53786E+12.
 

 ***WARNING: SOLVER PROBLEM. NUMERICAL SINGULARITY WHEN PROCESSING NODE 
             CUT-1-1.76 D.O.F. 3 RATIO = 7.30006E+12.

               CONVERGENCE CHECKS FOR EQUILIBRIUM ITERATION     2


 AVERAGE FORCE                      6.417E-05   TIME AVG. FORCE       6.417E-05
 LARGEST RESIDUAL FORCE             5.992E-04   AT NODE       4182   DOF  2
   INSTANCE: CUT-1-1                                                                         
 LARGEST INCREMENT OF DISP.         5.134E+05   AT NODE        328   DOF  3
   INSTANCE: PART-1-RIGID-OUTER-1                                                            
 LARGEST CORRECTION TO DISP.        2.567E+05   AT NODE        328   DOF  3
   INSTANCE: PART-1-RIGID-OUTER-1                                                            
          FORCE     EQUILIBRIUM NOT ACHIEVED WITHIN TOLERANCE.

 AVERAGE MOMENT                      0.00       TIME AVG. MOMENT      1.000E-02
 LARGEST RESIDUAL MOMENT           -1.935E-05   AT NODE        142   DOF  6
   INSTANCE: PART-1-RIGID-INNER-1                                                            
 LARGEST INCREMENT OF ROTATION     -1.864E+05   AT NODE        142   DOF  4
   INSTANCE: PART-1-RIGID-INNER-1                                                            
 LARGEST CORRECTION TO ROTATION    -9.318E+04   AT NODE        142   DOF  4
   INSTANCE: PART-1-RIGID-INNER-1                                                            
          THE MOMENT    IS ZERO EVERYWHERE BUT THE MOMENT    RESIDUAL OR
          THE ROTATION CORRECTION IS NON-ZERO
 
	SYMMETRIC DIRECT SPARSE SOLVER RUNNING ON
 	1 HOST:        1 MPI RANK  x 1 THREAD
 	NUMBER OF EQUATIONS:     16560
 	NUMBER OF RHS:           1
 	NUMBER OF FLOPS:         8.535e+08

     CHECK POINT  START OF SOLVER     

     CHECK POINT  END OF SOLVER       

       ELAPSED USER TIME (SEC)      =  0.10000    
       ELAPSED SYSTEM TIME (SEC)    =  0.10000    
       ELAPSED TOTAL CPU TIME (SEC) =  0.20000    
       ELAPSED WALLCLOCK TIME (SEC) =            0
 

 ***WARNING: THE SYSTEM MATRIX HAS 1 NEGATIVE EIGENVALUES.
             EXPLANATIONS ARE SUGGESTED AFTER THE FIRST OCCURRENCE OF THIS MESSAGE.
 

 ***WARNING: SOLVER PROBLEM. NUMERICAL SINGULARITY WHEN PROCESSING NODE 
             CUT-1-1.189 D.O.F. 1 RATIO = 4.94124E+12.
 

 ***WARNING: SOLVER PROBLEM. NUMERICAL SINGULARITY WHEN PROCESSING NODE 
             CUT-1-1.189 D.O.F. 3 RATIO = 27.5838E+12 .
 

 ***WARNING: SOLVER PROBLEM. NUMERICAL SINGULARITY WHEN PROCESSING NODE 
             CUT-1-1.76 D.O.F. 1 RATIO = 1.36987E+12.
 

 ***WARNING: SOLVER PROBLEM. NUMERICAL SINGULARITY WHEN PROCESSING NODE 
             CUT-1-1.76 D.O.F. 2 RATIO = 5.53786E+12.
 

 ***WARNING: SOLVER PROBLEM. NUMERICAL SINGULARITY WHEN PROCESSING NODE 
             CUT-1-1.76 D.O.F. 3 RATIO = 7.30006E+12.

               CONVERGENCE CHECKS FOR EQUILIBRIUM ITERATION     3


 AVERAGE FORCE                      6.479E-05   TIME AVG. FORCE       6.479E-05
 LARGEST RESIDUAL FORCE             8.405E-04   AT NODE       5594   DOF  2
   INSTANCE: CUT-1-1                                                                         
 LARGEST INCREMENT OF DISP.         7.700E+05   AT NODE        328   DOF  3
   INSTANCE: PART-1-RIGID-OUTER-1                                                            
 LARGEST CORRECTION TO DISP.        2.567E+05   AT NODE        328   DOF  3
   INSTANCE: PART-1-RIGID-OUTER-1                                                            
          FORCE     EQUILIBRIUM NOT ACHIEVED WITHIN TOLERANCE.

 AVERAGE MOMENT                      0.00       TIME AVG. MOMENT      1.000E-02
 LARGEST RESIDUAL MOMENT            7.637E-05   AT NODE        142   DOF  6
   INSTANCE: PART-1-RIGID-INNER-1                                                            
 LARGEST INCREMENT OF ROTATION     -2.796E+05   AT NODE        142   DOF  4
   INSTANCE: PART-1-RIGID-INNER-1                                                            
 LARGEST CORRECTION TO ROTATION    -9.318E+04   AT NODE        142   DOF  4
   INSTANCE: PART-1-RIGID-INNER-1                                                            
          THE MOMENT    IS ZERO EVERYWHERE BUT THE MOMENT    RESIDUAL OR
          THE ROTATION CORRECTION IS NON-ZERO
 
	SYMMETRIC DIRECT SPARSE SOLVER RUNNING ON
 	1 HOST:        1 MPI RANK  x 1 THREAD
 	NUMBER OF EQUATIONS:     16560
 	NUMBER OF RHS:           1
 	NUMBER OF FLOPS:         8.535e+08

     CHECK POINT  START OF SOLVER     

     CHECK POINT  END OF SOLVER       

       ELAPSED USER TIME (SEC)      =  0.10000    
       ELAPSED SYSTEM TIME (SEC)    =   0.0000    
       ELAPSED TOTAL CPU TIME (SEC) =  0.10000    
       ELAPSED WALLCLOCK TIME (SEC) =            0
 

 ***WARNING: THE SYSTEM MATRIX HAS 1 NEGATIVE EIGENVALUES.
             EXPLANATIONS ARE SUGGESTED AFTER THE FIRST OCCURRENCE OF THIS MESSAGE.
 

 ***WARNING: SOLVER PROBLEM. NUMERICAL SINGULARITY WHEN PROCESSING NODE 
             CUT-1-1.189 D.O.F. 1 RATIO = 4.94124E+12.
 

 ***WARNING: SOLVER PROBLEM. NUMERICAL SINGULARITY WHEN PROCESSING NODE 
             CUT-1-1.189 D.O.F. 3 RATIO = 27.5838E+12 .
 

 ***WARNING: SOLVER PROBLEM. NUMERICAL SINGULARITY WHEN PROCESSING NODE 
             CUT-1-1.76 D.O.F. 1 RATIO = 1.36987E+12.
 

 ***WARNING: SOLVER PROBLEM. NUMERICAL SINGULARITY WHEN PROCESSING NODE 
             CUT-1-1.76 D.O.F. 2 RATIO = 5.53786E+12.
 

 ***WARNING: SOLVER PROBLEM. NUMERICAL SINGULARITY WHEN PROCESSING NODE 
             CUT-1-1.76 D.O.F. 3 RATIO = 7.30006E+12.

               CONVERGENCE CHECKS FOR EQUILIBRIUM ITERATION     4


 AVERAGE FORCE                      6.527E-05   TIME AVG. FORCE       6.527E-05
 LARGEST RESIDUAL FORCE            -5.655E-04   AT NODE       2779   DOF  2
   INSTANCE: CUT-1-1                                                                         
 LARGEST INCREMENT OF DISP.         1.027E+06   AT NODE        328   DOF  3
   INSTANCE: PART-1-RIGID-OUTER-1                                                            
 LARGEST CORRECTION TO DISP.        2.567E+05   AT NODE        328   DOF  3
   INSTANCE: PART-1-RIGID-OUTER-1                                                            
          FORCE     EQUILIBRIUM NOT ACHIEVED WITHIN TOLERANCE.

 AVERAGE MOMENT                      0.00       TIME AVG. MOMENT      1.000E-02
 LARGEST RESIDUAL MOMENT           -1.326E-04   AT NODE        142   DOF  6
   INSTANCE: PART-1-RIGID-INNER-1                                                            
 LARGEST INCREMENT OF ROTATION     -3.727E+05   AT NODE        142   DOF  4
   INSTANCE: PART-1-RIGID-INNER-1                                                            
 LARGEST CORRECTION TO ROTATION    -9.318E+04   AT NODE        142   DOF  4
   INSTANCE: PART-1-RIGID-INNER-1                                                            
          THE MOMENT    IS ZERO EVERYWHERE BUT THE MOMENT    RESIDUAL OR
          THE ROTATION CORRECTION IS NON-ZERO
 
	SYMMETRIC DIRECT SPARSE SOLVER RUNNING ON
 	1 HOST:        1 MPI RANK  x 1 THREAD
 	NUMBER OF EQUATIONS:     16560
 	NUMBER OF RHS:           1
 	NUMBER OF FLOPS:         8.535e+08

     CHECK POINT  START OF SOLVER     

     CHECK POINT  END OF SOLVER       

       ELAPSED USER TIME (SEC)      =   0.0000    
       ELAPSED SYSTEM TIME (SEC)    =   0.0000    
       ELAPSED TOTAL CPU TIME (SEC) =   0.0000    
       ELAPSED WALLCLOCK TIME (SEC) =            0
 

 ***WARNING: THE SYSTEM MATRIX HAS 1 NEGATIVE EIGENVALUES.
             EXPLANATIONS ARE SUGGESTED AFTER THE FIRST OCCURRENCE OF THIS MESSAGE.
 

 ***WARNING: SOLVER PROBLEM. NUMERICAL SINGULARITY WHEN PROCESSING NODE 
             CUT-1-1.189 D.O.F. 1 RATIO = 4.94124E+12.
 

 ***WARNING: SOLVER PROBLEM. NUMERICAL SINGULARITY WHEN PROCESSING NODE 
             CUT-1-1.189 D.O.F. 3 RATIO = 27.5838E+12 .
 

 ***WARNING: SOLVER PROBLEM. NUMERICAL SINGULARITY WHEN PROCESSING NODE 
             CUT-1-1.76 D.O.F. 1 RATIO = 1.36987E+12.
 

 ***WARNING: SOLVER PROBLEM. NUMERICAL SINGULARITY WHEN PROCESSING NODE 
             CUT-1-1.76 D.O.F. 2 RATIO = 5.53786E+12.
 

 ***WARNING: SOLVER PROBLEM. NUMERICAL SINGULARITY WHEN PROCESSING NODE 
             CUT-1-1.76 D.O.F. 3 RATIO = 7.30006E+12.

               CONVERGENCE CHECKS FOR EQUILIBRIUM ITERATION     5


 AVERAGE FORCE                      6.630E-05   TIME AVG. FORCE       6.630E-05
 LARGEST RESIDUAL FORCE            -7.230E-04   AT NODE       4156   DOF  2
   INSTANCE: CUT-1-1                                                                         
 LARGEST INCREMENT OF DISP.         1.283E+06   AT NODE        328   DOF  3
   INSTANCE: PART-1-RIGID-OUTER-1                                                            
 LARGEST CORRECTION TO DISP.        2.567E+05   AT NODE        328   DOF  3
   INSTANCE: PART-1-RIGID-OUTER-1                                                            
          FORCE     EQUILIBRIUM NOT ACHIEVED WITHIN TOLERANCE.

 AVERAGE MOMENT                      0.00       TIME AVG. MOMENT      1.000E-02
 LARGEST RESIDUAL MOMENT            2.604E-05   AT NODE        481   DOF  6
   INSTANCE: PART-1-RIGID-OUTER-1                                                            
 LARGEST INCREMENT OF ROTATION     -4.659E+05   AT NODE        142   DOF  4
   INSTANCE: PART-1-RIGID-INNER-1                                                            
 LARGEST CORRECTION TO ROTATION    -9.318E+04   AT NODE        481   DOF  4
   INSTANCE: PART-1-RIGID-OUTER-1                                                            
          THE MOMENT    IS ZERO EVERYWHERE BUT THE MOMENT    RESIDUAL OR
          THE ROTATION CORRECTION IS NON-ZERO
 
	SYMMETRIC DIRECT SPARSE SOLVER RUNNING ON
 	1 HOST:        1 MPI RANK  x 1 THREAD
 	NUMBER OF EQUATIONS:     16560
 	NUMBER OF RHS:           1
 	NUMBER OF FLOPS:         8.535e+08

     CHECK POINT  START OF SOLVER     

     CHECK POINT  END OF SOLVER       

       ELAPSED USER TIME (SEC)      =   0.0000    
       ELAPSED SYSTEM TIME (SEC)    =   0.0000    
       ELAPSED TOTAL CPU TIME (SEC) =   0.0000    
       ELAPSED WALLCLOCK TIME (SEC) =            0
 

 ***WARNING: THE SYSTEM MATRIX HAS 1 NEGATIVE EIGENVALUES.
             EXPLANATIONS ARE SUGGESTED AFTER THE FIRST OCCURRENCE OF THIS MESSAGE.
 

 ***WARNING: SOLVER PROBLEM. NUMERICAL SINGULARITY WHEN PROCESSING NODE 
             CUT-1-1.189 D.O.F. 1 RATIO = 4.94124E+12.
 

 ***WARNING: SOLVER PROBLEM. NUMERICAL SINGULARITY WHEN PROCESSING NODE 
             CUT-1-1.189 D.O.F. 3 RATIO = 27.5838E+12 .
 

 ***WARNING: SOLVER PROBLEM. NUMERICAL SINGULARITY WHEN PROCESSING NODE 
             CUT-1-1.76 D.O.F. 1 RATIO = 1.36987E+12.
 

 ***WARNING: SOLVER PROBLEM. NUMERICAL SINGULARITY WHEN PROCESSING NODE 
             CUT-1-1.76 D.O.F. 2 RATIO = 5.53786E+12.
 

 ***WARNING: SOLVER PROBLEM. NUMERICAL SINGULARITY WHEN PROCESSING NODE 
             CUT-1-1.76 D.O.F. 3 RATIO = 7.30006E+12.

               CONVERGENCE CHECKS FOR EQUILIBRIUM ITERATION     6


 AVERAGE FORCE                      6.739E-05   TIME AVG. FORCE       6.739E-05
 LARGEST RESIDUAL FORCE            -8.512E-04   AT NODE       2788   DOF  2
   INSTANCE: CUT-1-1                                                                         
 LARGEST INCREMENT OF DISP.         1.540E+06   AT NODE        328   DOF  3
   INSTANCE: PART-1-RIGID-OUTER-1                                                            
 LARGEST CORRECTION TO DISP.        2.567E+05   AT NODE        328   DOF  3
   INSTANCE: PART-1-RIGID-OUTER-1                                                            
          FORCE     EQUILIBRIUM NOT ACHIEVED WITHIN TOLERANCE.

 AVERAGE MOMENT                      0.00       TIME AVG. MOMENT      1.000E-02
 LARGEST RESIDUAL MOMENT           -1.315E-04   AT NODE        142   DOF  6
   INSTANCE: PART-1-RIGID-INNER-1                                                            
 LARGEST INCREMENT OF ROTATION     -5.591E+05   AT NODE        142   DOF  4
   INSTANCE: PART-1-RIGID-INNER-1                                                            
 LARGEST CORRECTION TO ROTATION    -9.318E+04   AT NODE        142   DOF  4
   INSTANCE: PART-1-RIGID-INNER-1                                                            
          THE MOMENT    IS ZERO EVERYWHERE BUT THE MOMENT    RESIDUAL OR
          THE ROTATION CORRECTION IS NON-ZERO
 

 ***NOTE: THE SOLUTION APPEARS TO BE DIVERGING. CONVERGENCE IS JUDGED UNLIKELY.
 

 ***ERROR: TOO MANY ATTEMPTS MADE FOR THIS INCREMENT



     ANALYSIS SUMMARY:
     TOTAL OF          1  INCREMENTS
                       5  CUTBACKS IN AUTOMATIC INCREMENTATION
                      30  ITERATIONS INCLUDING CONTACT ITERATIONS IF PRESENT
                      30  PASSES THROUGH THE EQUATION SOLVER OF WHICH 
                      30  INVOLVE MATRIX DECOMPOSITION, INCLUDING
                       0  DECOMPOSITION(S) OF THE MASS MATRIX
                       1  REORDERING OF EQUATIONS TO MINIMIZE WAVEFRONT
                       0  ADDITIONAL RESIDUAL EVALUATIONS FOR LINE SEARCHES
                       0  ADDITIONAL OPERATOR EVALUATIONS FOR LINE SEARCHES
                     916  WARNING MESSAGES DURING USER INPUT PROCESSING
                     180  WARNING MESSAGES DURING ANALYSIS
                     150  ANALYSIS WARNINGS ARE NUMERICAL PROBLEM MESSAGES
                      30  ANALYSIS WARNINGS ARE NEGATIVE EIGENVALUE MESSAGES
                       1  ERROR MESSAGES



     JOB TIME SUMMARY
       USER TIME (SEC)      =      3.7    
       SYSTEM TIME (SEC)    =     0.30    
       TOTAL CPU TIME (SEC) =      4.0    
       WALLCLOCK TIME (SEC) =            4
       MEMORY PEAK (GB)     =            0
