*Heading
** Job name: Job-1 Model name: Model-1
** Generated by: Abaqus/CAE 2023
*Preprint, echo=NO, model=NO, history=NO, contact=NO
**
** PARTS
**
*Part, name=Cut-1
*End Part
**  
*Part, name=Part-1-Rigid-Inner
*End Part
**  
*Part, name=Part-1-Rigid-Outer
*End Part
**  
**
** ASSEMBLY
**
*Assembly, name=Assembly
**  
*Instance, name=Cut-1-1, part=Cut-1
*Node
      1,  -2.44096971,        -0.25,           0.
      2,  -2.43906927, -0.115137823,           0.
      3,  -2.43907762,  0.115362503,           0.
      4,  -2.44096971,         0.25,           0.
      5,          -1.,         0.25,           0.
      6, -0.960000038,  0.279999942,           0.
      7,          -1.,        -0.25,           0.
      8, -0.960000038, -0.279999942,           0.
      9,  -2.49563408, -0.147683933,           0.
     10,  -2.48869419,  -0.23748973,           0.
     11,  -2.45944595, -0.254320383,           0.
     12,         -2.5,           0.,           0.
     13,  -2.49621224,  0.137567371,           0.
     14,  -2.49054265,  0.217249125,           0.
     15,  -2.45728207,   0.25332579,           0.
     16,    -2.482342, -0.296610177,           0.
     17,    -2.482342,  0.296610177,           0.
     18,  -2.42956495, -0.225486547,           0.
     19,  -2.43233275, -0.200017318,           0.
     20,  -2.43633986, -0.166788727,           0.
** ... 5592 like lines cut
*Element, type=C3D8R
   1,  238,  258,   18,    1, 1641, 1661, 1421, 1404
   2,  258,  259,   19,   18, 1661, 1662, 1422, 1421
   3,  259,  260,   20,   19, 1662, 1663, 1423, 1422
   4,  260,  261,    2,   20, 1663, 1664, 1405, 1423
   5,  261,  262,   21,    2, 1664, 1665, 1424, 1405
   6,  262,  263,   22,   21, 1665, 1666, 1425, 1424
   7,  263,  264,   23,   22, 1666, 1667, 1426, 1425
   8,  264,  265,    3,   23, 1667, 1668, 1406, 1426
   9,  265,  266,   24,    3, 1668, 1669, 1427, 1406
  10,  266,  267,   25,   24, 1669, 1670, 1428, 1427
  11,  267,  268,   26,   25, 1670, 1671, 1429, 1428
  12,  268,   27,    4,   26, 1671, 1430, 1407, 1429
  13,  237,  269,  258,  238, 1640, 1672, 1661, 1641
  14,  269,  270,  259,  258, 1672, 1673, 1662, 1661
  15,  270,  271,  260,  259, 1673, 1674, 1663, 1662
  16,  271,  272,  261,  260, 1674, 1675, 1664, 1663
  17,  272,  273,  262,  261, 1675, 1676, 1665, 1664
  18,  273,  274,  263,  262, 1676, 1677, 1666, 1665
  19,  274,  275,  264,  263, 1677, 1678, 1667, 1666
  20,  275,  276,  265,  264, 1678, 1679, 1668, 1667
** ... 3826 like lines cut
*Nset, nset=Set-1, generate
    1,  5612,     1
*Elset, elset=Set-1, generate
    1,  3846,     1
** Section: Section-1
*Solid Section, elset=Set-1, material=Maraging300Steel
,
*End Instance
**  
*Instance, name=Part-1-Rigid-Outer-1, part=Part-1-Rigid-Outer
*Node
      1,    -2.482342, -0.296610177,        0.375
      2,    -2.482342, -0.296610177,           0.
      3,         -2.5,           0.,           0.
      4,    -2.482342,  0.296610177,           0.
      5,         -2.5,           0.,        0.375
      6,    -2.482342,  0.296610177,        0.375
      7,           0.,        2.625,           0.
      8,           0.,        2.625,        0.375
      9,           0.,          2.5,        0.375
     10,           0.,          2.5,           0.
     11,    -2.482342, -0.296610177,       0.1875
     12,  -2.49540973, -0.151426986,           0.
     13,  -2.49510813,  0.156318039,           0.
     14,    -2.482342,  0.296610177,       0.1875
     15,  -2.49545622, -0.150658414,        0.375
     16,  -2.49506783,  0.156961396,        0.375
     17,  0.204765081,    2.6170013,        0.375
     18,  0.408079296,   2.59308624,        0.375
     19,  0.608980775,   2.55338359,        0.375
     20,  0.806190372,   2.49813581,        0.375
** ... 460 like lines cut
*Element, type=R3D4
1,   1,  11, 323,  15
2,  11,   2,  12, 323
3,  15, 323, 324,   5
4, 323,  12,   3, 324
5,   5, 324, 325,  16
6, 324,   3,  13, 325
7,  16, 325,  14,   6
8, 325,  13,   4,  14
  9,  56, 326, 328,  55
 10, 326, 135, 136, 328
 11,  55, 328, 329,  54
 12, 328, 136, 137, 329
 13,  54, 329, 330,  53
 14, 329, 137, 138, 330
 15,  53, 330, 331,  52
 16, 330, 138, 139, 331
 17,  52, 331, 332,  51
 18, 331, 139, 140, 332
 19,  51, 332, 333,  50
 20, 332, 140, 141, 333
** ... 460 like lines cut
*Node
    481,           0., 1.60734891e-16,           0.
*Nset, nset=Part-1-Rigid-Outer-1-RefPt_, internal
481, 
*Elset, elset=Part-1-Rigid-Outer-1, generate
   1,  480,    1
*End Instance
**  
*Instance, name=Part-1-Rigid-Inner-1, part=Part-1-Rigid-Inner
*Node
      1, -0.960000038, -0.279999942,        0.375
      2, -0.960000038, -0.279999942,           0.
      3,           0.,           1.,           0.
      4, -0.960000038,  0.279999942,           0.
      5,           0.,           1.,        0.375
      6, -0.960000038,  0.279999942,        0.375
      7, -0.846946239, -0.531678557,           0.
      8, -0.669420123,  -0.74288404,           0.
      9, -0.440935522, -0.897538781,           0.
     10, -0.178885475,  -0.98386991,           0.
     11, 0.0967819169, -0.995305598,           0.
     12,  0.365081936, -0.930975378,           0.
     13,  0.605590761, -0.795776248,           0.
     14,  0.800000012, -0.600000024,           0.
     15,  0.933510602, -0.358549803,           0.
     16,  0.995959342, -0.0898056179,           0.
     17,  0.982592344,  0.185774878,           0.
     18,   0.89442718,   0.44721359,           0.
     19,  0.738175333,  0.674608946,           0.
     20,  0.525731146,  0.850650787,           0.
** ... 121 like lines cut
*Element, type=R3D4
 1,  1,  2,  7, 40
 2, 40,  7,  8, 39
 3, 39,  8,  9, 38
 4, 38,  9, 10, 37
 5, 37, 10, 11, 36
 6, 36, 11, 12, 35
 7, 35, 12, 13, 34
 8, 34, 13, 14, 33
 9, 33, 14, 15, 32
10, 32, 15, 16, 31
11, 31, 16, 17, 30
12, 30, 17, 18, 29
13, 29, 18, 19, 28
14, 28, 19, 20, 27
15, 27, 20, 21, 26
16, 26, 21,  3,  5
17,  5,  3, 22, 44
18, 44, 22, 23, 43
19, 43, 23, 24, 42
20, 42, 24, 25, 41
** ... 117 like lines cut
*Element, type=R3D3
24, 71, 51, 57
25, 48, 75, 47
26, 90, 65, 66
86,  20, 133,  21
*Node
    142,           0., -6.12323426e-17,        0.375
*Nset, nset=Part-1-Rigid-Inner-1-RefPt_, internal
142, 
*Elset, elset=Part-1-Rigid-Inner-1, generate
   1,  141,    1
*End Instance
**  
*Node
      1,           0.,           0.,           0.
*Nset, nset=Set-23
 1,
*Nset, nset=Set-27, instance=Part-1-Rigid-Outer-1
 8,
*Nset, nset=Set-28, instance=Part-1-Rigid-Outer-1
 481,
*Nset, nset=Set-29
 1,
*Nset, nset=Set-30, instance=Part-1-Rigid-Inner-1, generate
  1,  44,   1
*Elset, elset=Set-30, instance=Part-1-Rigid-Inner-1, generate
  1,  21,   1
*Nset, nset=Set-31, instance=Part-1-Rigid-Inner-1
 142,
*Nset, nset=Set-32, instance=Part-1-Rigid-Outer-1
 7, 8
*Nset, nset=Set-33, instance=Part-1-Rigid-Inner-1, generate
   1,  141,    1
*Elset, elset=Set-33, instance=Part-1-Rigid-Inner-1
   1,   2,   3,   4,   5,   6,   7,   8,   9,  10,  11,  12,  13,  14,  15,  16
  17,  18,  19,  20,  21,  24,  25,  26,  27,  28,  29,  30,  31,  32,  33,  34
  35,  36,  37,  38,  39,  40,  41,  42,  43,  44,  45,  46,  47,  48,  49,  50
  51,  52,  53,  54,  55,  56,  57,  58,  59,  60,  61,  62,  63,  64,  65,  66
  67,  68,  69,  70,  71,  72,  73,  74,  75,  76,  77,  78,  79,  80,  81,  82
  83,  84,  85,  86,  87,  88,  89,  90,  91,  92,  93,  94,  95,  96,  97,  98
  99, 100, 101, 102, 103, 104, 105, 106, 107, 108, 109, 110, 111, 112, 113, 114
 115, 116, 117, 118, 119, 120, 121, 122, 123, 124, 125, 126, 127, 128, 129, 130
 131, 132, 133, 134, 135, 136, 137, 138, 139, 140, 141
*Nset, nset=Set-34, instance=Part-1-Rigid-Inner-1, generate
   1,  141,    1
*Elset, elset=Set-34, instance=Part-1-Rigid-Inner-1
   1,   2,   3,   4,   5,   6,   7,   8,   9,  10,  11,  12,  13,  14,  15,  16
  17,  18,  19,  20,  21,  24,  25,  26,  27,  28,  29,  30,  31,  32,  33,  34
  35,  36,  37,  38,  39,  40,  41,  42,  43,  44,  45,  46,  47,  48,  49,  50
  51,  52,  53,  54,  55,  56,  57,  58,  59,  60,  61,  62,  63,  64,  65,  66
  67,  68,  69,  70,  71,  72,  73,  74,  75,  76,  77,  78,  79,  80,  81,  82
  83,  84,  85,  86,  87,  88,  89,  90,  91,  92,  93,  94,  95,  96,  97,  98
  99, 100, 101, 102, 103, 104, 105, 106, 107, 108, 109, 110, 111, 112, 113, 114
 115, 116, 117, 118, 119, 120, 121, 122, 123, 124, 125, 126, 127, 128, 129, 130
 131, 132, 133, 134, 135, 136, 137, 138, 139, 140, 141
*Nset, nset=Set-35, instance=Part-1-Rigid-Outer-1
   1,   5,   6,   8,   9,  15,  16,  17,  18,  19,  20,  21,  22,  23,  24,  25
  26,  27,  28,  29,  30,  31,  32,  33,  34,  35,  36,  37,  38,  39,  40,  41
  42,  43,  44,  45,  46,  47,  48,  49,  50,  51,  52,  53,  54,  55,  56,  57
  58,  59,  60,  61,  62,  63,  64,  65,  66,  67,  68,  69,  70,  71,  72,  73
  74,  75,  76,  77,  78,  79,  80,  81,  82,  83,  84,  85,  86,  87,  88,  89
  90,  91,  92,  93,  94,  95, 175, 176, 177, 178, 179, 180, 181, 182, 183, 184
 185, 186, 187, 188, 189, 190, 191, 192, 193, 194, 195, 196, 197, 198, 199, 200
 201, 202, 203, 204, 205, 206, 207, 208, 209, 210, 211, 212, 213, 214, 215, 216
 217, 218, 219, 220, 221, 222, 223, 224, 225, 226, 227, 228, 229, 230, 231, 232
 233, 234, 235, 236, 237, 238, 239, 240, 241, 242, 243, 244, 245, 246, 247, 248
*Elset, elset=Set-35, instance=Part-1-Rigid-Outer-1, generate
 321,  400,    1
*Nset, nset=Set-36, instance=Part-1-Rigid-Outer-1
   7,   8,  17,  18,  19,  20,  21,  22,  23,  24,  25,  26,  27,  28,  29,  30
  31,  32,  33,  34,  35,  36,  37,  38,  39,  40,  41,  42,  43,  44,  45,  46
  47,  48,  49,  50,  51,  52,  53,  54,  55,  56,  57,  58,  59,  60,  61,  62
  63,  64,  65,  66,  67,  68,  69,  70,  71,  72,  73,  74,  75,  76,  77,  78
  79,  80,  81,  82,  83,  84,  85,  86,  87,  88,  89,  90,  91,  92,  93,  94
  95,  96,  97,  98,  99, 100, 101, 102, 103, 104, 105, 106, 107, 108, 109, 110
 111, 112, 113, 114, 115, 116, 117, 118, 119, 120, 121, 122, 123, 124, 125, 126
 127, 128, 129, 130, 131, 132, 133, 134, 135, 136, 137, 138, 139, 140, 141, 142
 143, 144, 145, 146, 147, 148, 149, 150, 151, 152, 153, 154, 155, 156, 157, 158
 159, 160, 161, 162, 163, 164, 165, 166, 167, 168, 169, 170, 171, 172, 173, 174
 326, 327, 328, 329, 330, 331, 332, 333, 334, 335, 336, 337, 338, 339, 340, 341
 342, 343, 344, 345, 346, 347, 348, 349, 350, 351, 352, 353, 354, 355, 356, 357
 358, 359, 360, 361, 362, 363, 364, 365, 366, 367, 368, 369, 370, 371, 372, 373
 374, 375, 376, 377, 378, 379, 380, 381, 382, 383, 384, 385, 386, 387, 388, 389
 390, 391, 392, 393, 394, 395, 396, 397, 398, 399, 400, 401, 402, 403, 404, 405
*Elset, elset=Set-36, instance=Part-1-Rigid-Outer-1, generate
   9,  168,    1
*Elset, elset=_m_Surf-3_SPOS, internal, instance=Part-1-Rigid-Outer-1, generate
 1,  8,  1
*Surface, type=ELEMENT, name=m_Surf-3
_m_Surf-3_SPOS, SPOS
*Elset, elset=_m_Surf-7_SPOS, internal, instance=Part-1-Rigid-Inner-1
 22, 23
*Surface, type=ELEMENT, name=m_Surf-7
_m_Surf-7_SPOS, SPOS
*Elset, elset=_s_Surf-3_S6, internal, instance=Cut-1-1, generate
 1249,  3813,  1282
*Elset, elset=_s_Surf-3_S4, internal, instance=Cut-1-1
 1258, 1260, 1262, 1264, 1266, 1277, 1280, 2540, 2542, 2544, 2546, 2548, 2559, 2562, 3822, 3824
 3826, 3828, 3830, 3841, 3844
*Elset, elset=_s_Surf-3_S5, internal, instance=Cut-1-1
 1273, 1281, 2555, 2563, 3837, 3845
*Surface, type=ELEMENT, name=s_Surf-3
_s_Surf-3_S6, S6
_s_Surf-3_S4, S4
_s_Surf-3_S5, S5
*Elset, elset=_s_Surf-5_S3, internal, instance=Cut-1-1
 1237, 1238, 1239, 1240, 1241, 1242, 1243, 1244, 1245, 1246, 1247, 1248, 2519, 2520, 2521, 2522
 2523, 2524, 2525, 2526, 2527, 2528, 2529, 2530, 3801, 3802, 3803, 3804, 3805, 3806, 3807, 3808
 3809, 3810, 3811, 3812
*Surface, type=ELEMENT, name=s_Surf-5
_s_Surf-5_S3, S3
*Rigid Body, ref node=Part-1-Rigid-Outer-1.Part-1-Rigid-Outer-1-RefPt_, elset=Part-1-Rigid-Outer-1.Part-1-Rigid-Outer-1
*Rigid Body, ref node=Part-1-Rigid-Inner-1.Part-1-Rigid-Inner-1-RefPt_, elset=Part-1-Rigid-Inner-1.Part-1-Rigid-Inner-1
*Nset, nset=_T-Cylindrical, internal
Set-34, 
Set-36, 
*Transform, nset=_T-Cylindrical, type=C
          0.,           0.,           0.,           0.,           0.,           1.
*Nset, nset="_T-Datum csys-1", internal
Set-31, 
*Transform, nset="_T-Datum csys-1"
          1.,           0.,           0.,           0.,           1.,           0.
** Constraint: Constraint-1
*Tie, name=Constraint-1, adjust=yes
s_Surf-3, m_Surf-3
** Constraint: Constraint-2
*Tie, name=Constraint-2, adjust=yes
s_Surf-5, m_Surf-7
*End Assembly
** 
** MATERIALS
** 
*Material, name=Maraging300Steel
*Elastic
 2.75e+07, 0.33
*Plastic
309700.,0.
** 
** BOUNDARY CONDITIONS
** 
** Name: BC-1 Type: Symmetry/Antisymmetry/Encastre
*Boundary
Set-34, ENCASTRE
** Name: BC-3 Type: Displacement/Rotation
*Boundary
Set-36, 1, 1
Set-36, 3, 3
** ----------------------------------------------------------------
** 
** STEP: Step-1
** 
*Step, name=Step-1, nlgeom=NO
*Static
1., 1., 1e-05, 1.
** 
** LOADS
** 
** Name: Load-1   Type: Moment
*Cload, follower
Set-31, 6, 1.
** 
** OUTPUT REQUESTS
** 
*Restart, write, frequency=0
** 
** FIELD OUTPUT: F-Output-1
** 
*Output, field, variable=PRESELECT
** 
** HISTORY OUTPUT: H-Output-1
** 
*Output, history, variable=PRESELECT
*End Step
